 
 **********************************************
 **** Specfem 2-D Solver - serial version  ****
 **********************************************
 
 Running Git version of the code corresponding to 
 commit a213b4bf06b5a89d16eef4d10eba8346c3d9607f
 dating From Date:   Thu Oct 1 10:54:07 2020 -0400
 
 
 NDIM =            2
 
 NGLLX =            5
 NGLLZ =            5
 
 using single precision for the calculations
 
 smallest and largest possible floating-point numbers are:   1.1754944E-38
  3.4028235E+38
 
 Reading the parameter file...
 
 Title of the simulation: checkers
 
 
 Parameter file successfully read 
 
 Reading in SOURCE file...
 
 Source           1
   Position xs, zs =    116059.490000000        105566.070000000     
 
   Source type (1=force, 2=moment tensor):            1
   Force source:
   Angle of the source (deg) =   0.000000000000000E+000
 
   Time function type (1=Ricker, 2=First derivative, 3=Gaussian, 4=Dirac, 5=Heav
 iside, 6,7=ocean type, 8=Read from file, 9=burst, 10=Sinusoidal, 11=Ormsby):
           1
   Ricker wavelet (second-derivative):
   Frequency, delay =   8.400000000000001E-002  0.000000000000000E+000
   Multiplying factor  =    10000000000.0000     
 
 all sources are okay
 


 -------------------------------------------------------------------------------
 -------------------------------------------------------------------------------
 Program SPECFEM2D: 
 -------------------------------------------------------------------------------
 -------------------------------------------------------------------------------
 checkers
 -------------------------------------------------------------------------------
 -------------------------------------------------------------------------------
 D a t e : 08 - 11 - 2020                                 T i m e  : 17:30:34
 -------------------------------------------------------------------------------
 -------------------------------------------------------------------------------


 C o n t r o l
 =============

     Number of spectral element control nodes. . .(npgeo) =    6561
     Number of space dimensions. . . . . . . . . . (NDIM) =       2


 C o n t r o l
 =============

     Display frequency . . . .(NSTEP_BETWEEN_OUTPUT_INFO) =    100
     Color display . . . . . . . . . . . . . . . (colors) =      1
      == 0     black and white display              
      == 1     color display                        
     Numbered mesh . . . . . . . . . . . . . . .(numbers) =      0
      == 0     do not number the mesh               
      == 1     number the mesh                      


 C o n t r o l
 =============

     Seismograms recording type . . . . . . .(seismotype) = 1
     Angle for first line of receivers. . . . .(anglerec) =   0.00


 C o n t r o l
 =============

     Read external initial field. . . . . .(initialfield) =      F
     Add Bielak conditions (add_Bielak_conditions_bottom) =      F
     Add Bielak conditions .(add_Bielak_conditions_right) =      F
     Add Bielak conditions . .(add_Bielak_conditions_top) =      F
     Add Bielak conditions. .(add_Bielak_conditions_left) =      F
     Attenuation in solid . . .(ATTENUATION_VISCOELASTIC) =      F
     Attenuation in fluid . . (ATTENUATION_VISCOACOUSTIC) =      F
     Save grid in ASCII file or not . (output_grid_ASCII) =      F
     Save a file with total energy or not.(OUTPUT_ENERGY) =      F


 C o n t r o l
 =============

     Vector display type . . . . . . . . .(imagetype_postscript) =      1
     Percentage of cut for vector plots. . . . . . . .(cutsnaps) =   1.00
     Subsampling of velocity model display. (subsamp_postscript) =      1


 I t e r a t i o n s 
 ===================

     Number of time iterations . . . . .(NSTEP) =    4800
     Time step increment. . . . . . . . . .(DT) =   6.000000E-02
     Total simulation duration . . . . . (ttot) =   2.880000E+02
 
 
 reading mesh databases...
 

 -- Spectral Elements --


     Number of spectral elements . . . . . . . . .  (nspec) =   1600
     Number of control nodes per element . . . . . (ngnod) =      9
     Number of points in X-direction . . . . . . . (NGLLX) =      5
     Number of points in Y-direction . . . . . . . (NGLLZ) =      5
     Number of points per element. . . . . . (NGLLX*NGLLZ) =     25
     Number of points for display . . . . . . (pointsdisp) =      6
     Number of element material sets . . . . . . . (numat) =      1
     Number of acoustic forcing elements (nelem_acforcing) =      0
     Number of acoustic free surf (nelem_acoustic_surface) =      0


 M a t e r i a l   s e t s :   2 D  (p o r o) e l a s t i c i t y
 ======================================================

     Number of material sets . . . . . . (numat) =     1


     ----------------------------------------
     -- Elastic (solid) isotropic material --
     ----------------------------------------
     Material set number. . . . . . . . (jmat) =     1
     P-wave velocity. . . . . . . . . . . (cp) = 5.80000000E+03
     S-wave velocity. . . . . . . . . . . (cs) = 3.50000000E+03
     Mass density. . . . . . . . . . (density) = 2.60000000E+03
     Poisson's ratio. . . . . . . . .(poisson) = 2.13651239E-01
     First Lame parameter Lambda. . . (lambda) = 2.37640000E+10
     Second Lame parameter Mu. . . . . . .(mu) = 3.18500000E+10
     Bulk modulus Kappa . . . . . . . .(kappa) = 5.56140000E+10
     Young's modulus E. . . . . . . . .(young) = 8.02334925E+10
     QKappa_attenuation .  . . . . . .(QKappa) = 1.00000000E+01
     Qmu_attenuation . . . . . . . . . . (Qmu) = 1.00000000E+01
 
 
 reading absorbing boundary...
   number of absorbing elements =          160
 
   any absorbing boundary flag  =  T
   PML boundary flag            =  F
   Stacey boundary flag         =  T
 
 
 Absorbing boundaries:
   using Stacey absorbing boundary conditions
 
 Number of absorbing elements:          160
   nspec_left   =           40
   nspec_right  =           40
   nspec_bottom =           40
   nspec_top    =           40
 
 
 Setting up mesh
 
 Generating global mesh numbering (fast version)...
 
 Mesh numbering:
   Total number of elements:         1600
 
   Total number of acoustic elements           =            0
   Total number of elastic/visco/poro elements =         1600
 
 Exact total number of grid points in the mesh:        25921
 Mesh dimensions:
   Xmin,Xmax of the whole mesh =   0.000000000000000E+000
   480000.000000000     
   Zmin,Zmax of the whole mesh =   0.000000000000000E+000
   480000.000000000     
 
 
 setup material arrays
 Domains:
   total number of acoustic elements        =            0
   total number of elastic elements         =         1600
   total number of poroelastic elements     =            0
 
 Setting up MPI communication arrays
 
   maximum number of MPI interfaces (for a single slice) =            0
 
   This is a single process simulation, no need for MPI communication
 
   number of outer elements  =            0
   number of inner elements  =         1600
 
   percentage of outer elements   0.0000000E+00 %
   percentage of inner elements    100.0000     %
 
   number of global nodes in outer elements  =            0
   number of global nodes in inner elements  =        25921
 
   determining communication phases:
   elastic domains:
   total number of outer/inner elements =            0        1600
   total percentage of outer elements   0.0000000E+00 %
   total percentage of inner elements    100.0000     %
 
 All mesh setup done successfully
 
 sources:
   Total number of sources:            1
 
 
   Setting parameters for source           1
 
     Source Type. . . . . . . . . . . . . . = Collocated Force
     X-position (meters). . . . . . . . . . =    1.1605949000E+05
     Y-position (meters). . . . . . . . . . =    1.0556607000E+05
     Fundamental frequency (Hz) . . . . . . =    8.4000000000E-02
     Time delay (s) . . . . . . . . . . . . =    0.0000000000E+00
     Multiplying factor . . . . . . . . . . =    1.0000000000E+10
     Angle from vertical direction (deg). . =    0.0000000000E+00

 
   Source:            1
     Onset time. . . . . . =   -14.2857142857143     
     Fundamental period. . =    11.9047619047619     
     Fundamental frequency =   8.400000000000001E-002
     The onset time is ok
 
 Source:            1
 *******************************
  locating force source
 *******************************
 
 Force source:
             original x:    116059.5    
             original z:    105566.1    
 Closest estimate found:   0.0000000E+00  m away
  in rank            0
  in element          330
  in elastic domain
  at xi,gamma coordinates =   0.343248333333335       0.594345000000000     
 
 
 end of force source detection
 
 
 receivers:
 
 Total number of receivers =           22
 
 
 ********************
  locating receivers
 ********************
 
 reading receiver information from the ./DATA/STATIONS file
 
 
 Station #            1     AA      S0001                           
             original x:    300.0000    
             original z:    480000.0    
 Closest estimate found:   5.8207689E-11  m away
  in element         1561
  in rank            0
  at xi,gamma coordinates =  -0.950000000000000        1.00000000000000     
 Distance from source:    391919.7      m
 
 
 Station #            2     AA      S0002                           
             original x:    640.0000    
             original z:    480000.0    
 Closest estimate found:   1.1368684E-13  m away
  in element         1561
  in rank            0
  at xi,gamma coordinates =  -0.893333333333333        1.00000000000000     
 Distance from source:    391819.4      m
 
 
 Station #            3     AA      S0003                           
             original x:    980.0000    
             original z:    480000.0    
 Closest estimate found:   5.8208105E-11  m away
  in element         1561
  in rank            0
  at xi,gamma coordinates =  -0.836666666666667        1.00000000000000     
 Distance from source:    391719.4      m
 
 
 Station #            4     AA      S0004                           
             original x:    1320.000    
             original z:    480000.0    
 Closest estimate found:   5.8208105E-11  m away
  in element         1561
  in rank            0
  at xi,gamma coordinates =  -0.780000000000000        1.00000000000001     
 Distance from source:    391619.6      m
 
 
 Station #            5     AA      S0005                           
             original x:    1660.000    
             original z:    480000.0    
 Closest estimate found:   2.2737368E-13  m away
  in element         1561
  in rank            0
  at xi,gamma coordinates =  -0.723333333333333       0.999999999999999     
 Distance from source:    391520.1      m
 
 
 Station #            6     AA      S0006                           
             original x:    2000.000    
             original z:    480000.0    
 Closest estimate found:   1.1641554E-10  m away
  in element         1561
  in rank            0
  at xi,gamma coordinates =  -0.666666666666667       0.999999999999990     
 Distance from source:    391420.9      m
 
 
 Station #            7     AA      S0007                           
             original x:    2340.000    
             original z:    480000.0    
 Closest estimate found:   4.5474735E-13  m away
  in element         1561
  in rank            0
  at xi,gamma coordinates =  -0.610000000000000       0.999999999999991     
 Distance from source:    391322.0      m
 
 
 Station #            8     AA      S0008                           
             original x:    2680.000    
             original z:    480000.0    
 Closest estimate found:   0.0000000E+00  m away
  in element         1561
  in rank            0
  at xi,gamma coordinates =  -0.553333333333333       0.999999999999992     
 Distance from source:    391223.3      m
 
 
 Station #            9     AA      S0009                           
             original x:    3020.000    
             original z:    480000.0    
 Closest estimate found:   5.8209437E-11  m away
  in element         1561
  in rank            0
  at xi,gamma coordinates =  -0.496666666666667        1.00000000000000     
 Distance from source:    391124.9      m
 
 
 Station #           10     AA      S0010                           
             original x:    3360.000    
             original z:    480000.0    
 Closest estimate found:   0.0000000E+00  m away
  in element         1561
  in rank            0
  at xi,gamma coordinates =  -0.440000000000000        1.00000000000000     
 Distance from source:    391026.8      m
 
 
 Station #           11     AA      S0011                           
             original x:    3700.000    
             original z:    480000.0    
 Closest estimate found:   1.1641621E-10  m away
  in element         1561
  in rank            0
  at xi,gamma coordinates =  -0.383333333333333       0.999999999999994     
 Distance from source:    390928.9      m
 
 
 Station #           12     AA      S0012                           
             original x:    2500.000    
             original z:    2500.000    
 Closest estimate found:   4.5474735E-13  m away
  in element            1
  in rank            0
  at xi,gamma coordinates =  -0.583333333333333      -0.583333333333333     
 Distance from source:    153357.0      m
 
 
 Station #           13     AA      S0013                           
             original x:    2500.000    
             original z:    2250.000    
 Closest estimate found:   0.0000000E+00  m away
  in element            1
  in rank            0
  at xi,gamma coordinates =  -0.583333333333333      -0.625000000000000     
 Distance from source:    153525.1      m
 
 
 Station #           14     AA      S0014                           
             original x:    2500.000    
             original z:    2000.000    
 Closest estimate found:   5.0842300E-13  m away
  in element            1
  in rank            0
  at xi,gamma coordinates =  -0.583333333333333      -0.666666666666667     
 Distance from source:    153693.5      m
 
 
 Station #           15     AA      S0015                           
             original x:    2500.000    
             original z:    1750.000    
 Closest estimate found:   5.0842300E-13  m away
  in element            1
  in rank            0
  at xi,gamma coordinates =  -0.583333333333333      -0.708333333333333     
 Distance from source:    153862.1      m
 
 
 Station #           16     AA      S0016                           
             original x:    2500.000    
             original z:    1500.000    
 Closest estimate found:   2.2737368E-13  m away
  in element            1
  in rank            0
  at xi,gamma coordinates =  -0.583333333333333      -0.750000000000000     
 Distance from source:    154030.9      m
 
 
 Station #           17     AA      S0017                           
             original x:    2500.000    
             original z:    1250.000    
 Closest estimate found:   5.0842300E-13  m away
  in element            1
  in rank            0
  at xi,gamma coordinates =  -0.583333333333333      -0.791666666666667     
 Distance from source:    154199.9      m
 
 
 Station #           18     AA      S0018                           
             original x:    2500.000    
             original z:    1000.000    
 Closest estimate found:   4.5474735E-13  m away
  in element            1
  in rank            0
  at xi,gamma coordinates =  -0.583333333333333      -0.833333333333333     
 Distance from source:    154369.1      m
 
 
 Station #           19     AA      S0019                           
             original x:    2500.000    
             original z:    750.0000    
 Closest estimate found:   4.5474735E-13  m away
  in element            1
  in rank            0
  at xi,gamma coordinates =  -0.583333333333333      -0.875000000000000     
 Distance from source:    154538.6      m
 
 
 Station #           20     AA      S0020                           
             original x:    2500.000    
             original z:    500.0000    
 Closest estimate found:   6.0425384E-13  m away
  in element            1
  in rank            0
  at xi,gamma coordinates =  -0.583333333333333      -0.916666666666667     
 Distance from source:    154708.2      m
 
 
 Station #           21     AA      S0021                           
             original x:    2500.000    
             original z:    250.0000    
 Closest estimate found:   2.2737368E-13  m away
  in element            1
  in rank            0
  at xi,gamma coordinates =  -0.583333333333333      -0.958333333333333     
 Distance from source:    154878.1      m
 
 
 Station #           22     AA      S0022                           
             original x:    2500.000    
             original z:   0.0000000E+00
 Closest estimate found:   4.5474735E-13  m away
  in element            1
  in rank            0
  at xi,gamma coordinates =  -0.583333333333333       -1.00000000000000     
 Distance from source:    155048.2      m
 
 
 end of receiver detection
 
 found a total of           22  receivers, this is okay
 
 
 preparing timerun...
 
 
 Preparing array allocations
   arrays for elastic domains
   wavefield initialization
   done initialization
 
 Attenuation:
   viscoelastic  attenuation: F (shear & bulk attenuation in elastic domains)
   viscoacoustic attenuation: F (bulk attenuation in acoustic domains)
 
 Preparing mass matrices
   initializing mass matrices
   inverting mass matrices
 
 Preparing image coloring
 
 Checking mesh and stability
 
 ********
 Model: P (or PI) velocity min,max =    5800.00000000000     
   5800.00000000000     
 Model: S velocity min,max         =    3500.00000000000     
   3500.00000000000     
 Model: density min,max            =    2600.00000000000     
   2600.00000000000     
 ********
 
 
 *********************************************
 *** Verification of simulation parameters ***
 *********************************************
 
 *** Max grid size =    12000.0000000000     
 *** Min grid size =    12000.0000000000     
 *** Max/min ratio =    1.00000000000000     
 
 *** Minimum GLL point distance  =    2072.07797575214     
 *** Average GLL point distance  =    3000.00000000000     
 
 *** Minimum period resolved     =    4.28571428571429     
 *** Maximum frequency resolved  =   0.233333333333333      Hz
 
 *** Maximum suggested time step                 =   0.178627411702770     
 *** Maximum suggested (Ricker) source frequency =   9.333333333333334E-002
 
 *** for DT :   5.9999999E-02
 *** Max CFL stability condition of the time scheme based on P wave velocity (mu
 st be below about 0.50 or so) =   0.167947343822944     
 
 ----
 Number of points per wavelength:
 ----
   Source            1
   maximum dominant source frequency =   0.210000000000000      Hz
 
   Nb pts / lambdaP_fmax min =    9.206349    
   Nb pts / lambdaP_fmax max =    9.206349    
 
   Nb pts / lambdaS_fmax min =    5.555555    
   Nb pts / lambdaS_fmax max =    5.555555    
 
 -----------------------------------------
 
 histogram of min number of points per S wavelength in solid regions:
 
 there are         1600  elements out of         1600  in solid regions
   (i.e.,    100.0000     % of the total)
 
 (too small = poor resolution of calculations -
  too big = wasting memory and CPU time)
 (threshold value is around 4.5 points per S wavelength
  in elastic regions and 5.5 per P wavelength in fluid regions):
 
   5.500000      -    5.505556               0    0.0000000E+00  %
   5.505556      -    5.511111               0    0.0000000E+00  %
   5.511111      -    5.516667               0    0.0000000E+00  %
   5.516667      -    5.522222               0    0.0000000E+00  %
   5.522222      -    5.527778               0    0.0000000E+00  %
   5.527778      -    5.533333               0    0.0000000E+00  %
   5.533333      -    5.538889               0    0.0000000E+00  %
   5.538889      -    5.544445               0    0.0000000E+00  %
   5.544445      -    5.550000               0    0.0000000E+00  %
   5.550000      -    5.555555            1600     100.0000      %
   5.555555      -    5.561111               0    0.0000000E+00  %
   5.561111      -    5.566667               0    0.0000000E+00  %
   5.566667      -    5.572222               0    0.0000000E+00  %
   5.572222      -    5.577778               0    0.0000000E+00  %
   5.577778      -    5.583333               0    0.0000000E+00  %
   5.583333      -    5.588889               0    0.0000000E+00  %
   5.588889      -    5.594444               0    0.0000000E+00  %
   5.594444      -    5.600000               0    0.0000000E+00  %
   5.600000      -    5.605556               0    0.0000000E+00  %
   5.605556      -    5.611111               0    0.0000000E+00  %
 
 total percentage =    100.000000000000       %
 
 
 total number of elements in fluid and solid regions =         1600
 
 
 Preparing source time function
   time stepping scheme:   Newmark
   time stepping stages:            1
   time step size      :   5.9999999E-02
 
   number of time steps:         4800
   number of sources   :            1
 
   saving the source time function in a text file...
 
 
 Preparing image coloring
   allocating color image arrays
   locating all the pixels of color images
   total number of image pixels =       579882
   done locating all the pixels of color images
   coloring image background based on vp
 
 done, preparation successful
 

 =========================================
 =  T i m e  e v o l u t i o n  l o o p  =
 =========================================

 
 Starting time iteration loop in undoing attenuation...
 
 
 ******************************************************************
Time step number       5   t =    0.2400 s out of    4800
 ******************************************************************
 We have done   8.3350696E-02 % of the total
 Max norm of vector field in solid (elastic) =   9.1681606E-08
 Elapsed time in seconds =   6.999969482421875E-003
 Elapsed time in hh:mm:ss =      0 h 00 m 00 s
 Mean elapsed time per time step in seconds =   1.399993896484375E-003
 Time steps remaining =         4795
 Estimated remaining time in seconds =    6.71297073364258     
 Estimated remaining time in hh:mm:ss =      0 h 00 m 06 s
 Estimated total run time in seconds =    6.71997070312500     
 Estimated total run time in hh:mm:ss =      0 h 00 m 06 s
 The run will finish approximately on: Sun Nov 08, 2020 17:31
 
 Creating color image of size          763  x          800  for time step 
           5
 drawing scalar image of the forward wavefield displacement...
 Color image maximum amplitude =   1.562206932703702E-007
 Color image created
 
 
 ******************************************************************
Time step number     100   t =    5.9400 s out of    4800
 ******************************************************************
 We have done    2.062930     % of the total
 Max norm of vector field in solid (elastic) =   3.1301421E-03
 Elapsed time in seconds =   0.187000036239624     
 Elapsed time in hh:mm:ss =      0 h 00 m 00 s
 Mean elapsed time per time step in seconds =   1.870000362396240E-003
 Time steps remaining =         4700
 Estimated remaining time in seconds =    8.78900170326233     
 Estimated remaining time in hh:mm:ss =      0 h 00 m 08 s
 Estimated total run time in seconds =    8.97600173950195     
 Estimated total run time in hh:mm:ss =      0 h 00 m 08 s
 The run will finish approximately on: Sun Nov 08, 2020 17:31
 
 Creating color image of size          763  x          800  for time step 
         100
 drawing scalar image of the forward wavefield displacement...
 Color image maximum amplitude =   3.330385545268655E-003
 Color image created
 
 
 ******************************************************************
Time step number     200   t =   11.9400 s out of    4800
 ******************************************************************
 We have done    4.146697     % of the total
 Max norm of vector field in solid (elastic) =   4.1670498E-02
 Elapsed time in seconds =   0.375999927520752     
 Elapsed time in hh:mm:ss =      0 h 00 m 00 s
 Mean elapsed time per time step in seconds =   1.879999637603760E-003
 Time steps remaining =         4600
 Estimated remaining time in seconds =    8.64799833297729     
 Estimated remaining time in hh:mm:ss =      0 h 00 m 08 s
 Estimated total run time in seconds =    9.02399826049805     
 Estimated total run time in hh:mm:ss =      0 h 00 m 09 s
 The run will finish approximately on: Sun Nov 08, 2020 17:31
 
 Creating color image of size          763  x          800  for time step 
         200
 drawing scalar image of the forward wavefield displacement...
 Color image maximum amplitude =   4.092430323362350E-002
 Color image created
 
 
 ******************************************************************
Time step number     300   t =   17.9400 s out of    4800
 ******************************************************************
 We have done    6.230464     % of the total
 Max norm of vector field in solid (elastic) =   5.6172028E-02
 Elapsed time in seconds =   0.564000129699707     
 Elapsed time in hh:mm:ss =      0 h 00 m 00 s
 Mean elapsed time per time step in seconds =   1.880000432332357E-003
 Time steps remaining =         4500
 Estimated remaining time in seconds =    8.46000194549561     
 Estimated remaining time in hh:mm:ss =      0 h 00 m 08 s
 Estimated total run time in seconds =    9.02400207519531     
 Estimated total run time in hh:mm:ss =      0 h 00 m 09 s
 The run will finish approximately on: Sun Nov 08, 2020 17:31
 
 Creating color image of size          763  x          800  for time step 
         300
 drawing scalar image of the forward wavefield displacement...
 Color image maximum amplitude =   5.523549392819405E-002
 Color image created
 
 
 ******************************************************************
Time step number     400   t =   23.9400 s out of    4800
 ******************************************************************
 We have done    8.314232     % of the total
 Max norm of vector field in solid (elastic) =   2.8989732E-02
 Elapsed time in seconds =   0.753999948501587     
 Elapsed time in hh:mm:ss =      0 h 00 m 00 s
 Mean elapsed time per time step in seconds =   1.884999871253967E-003
 Time steps remaining =         4400
 Estimated remaining time in seconds =    8.29399943351746     
 Estimated remaining time in hh:mm:ss =      0 h 00 m 08 s
 Estimated total run time in seconds =    9.04799938201904     
 Estimated total run time in hh:mm:ss =      0 h 00 m 09 s
 The run will finish approximately on: Sun Nov 08, 2020 17:31
 
 Creating color image of size          763  x          800  for time step 
         400
 drawing scalar image of the forward wavefield displacement...
 Color image maximum amplitude =   2.889670990407467E-002
 Color image created
 
 
 ******************************************************************
Time step number     500   t =   29.9400 s out of    4800
 ******************************************************************
 We have done    10.39800     % of the total
 Max norm of vector field in solid (elastic) =   2.2100745E-02
 Elapsed time in seconds =   0.944000005722046     
 Elapsed time in hh:mm:ss =      0 h 00 m 00 s
 Mean elapsed time per time step in seconds =   1.888000011444092E-003
 Time steps remaining =         4300
 Estimated remaining time in seconds =    8.11840004920959     
 Estimated remaining time in hh:mm:ss =      0 h 00 m 08 s
 Estimated total run time in seconds =    9.06240005493164     
 Estimated total run time in hh:mm:ss =      0 h 00 m 09 s
 The run will finish approximately on: Sun Nov 08, 2020 17:31
 
 Creating color image of size          763  x          800  for time step 
         500
 drawing scalar image of the forward wavefield displacement...
 Color image maximum amplitude =   2.206542529165745E-002
 Color image created
 
 
 ******************************************************************
Time step number     600   t =   35.9400 s out of    4800
 ******************************************************************
 We have done    12.48177     % of the total
 Max norm of vector field in solid (elastic) =   1.8550888E-02
 Elapsed time in seconds =    1.13700008392334     
 Elapsed time in hh:mm:ss =      0 h 00 m 01 s
 Mean elapsed time per time step in seconds =   1.895000139872233E-003
 Time steps remaining =         4200
 Estimated remaining time in seconds =    7.95900058746338     
 Estimated remaining time in hh:mm:ss =      0 h 00 m 07 s
 Estimated total run time in seconds =    9.09600067138672     
 Estimated total run time in hh:mm:ss =      0 h 00 m 09 s
 The run will finish approximately on: Sun Nov 08, 2020 17:31
 
 Creating color image of size          763  x          800  for time step 
         600
 drawing scalar image of the forward wavefield displacement...
 Color image maximum amplitude =   1.852554827928543E-002
 Color image created
 
 
 ******************************************************************
Time step number     700   t =   41.9400 s out of    4800
 ******************************************************************
 We have done    14.56553     % of the total
 Max norm of vector field in solid (elastic) =   1.6295008E-02
 Elapsed time in seconds =    1.33100008964539     
 Elapsed time in hh:mm:ss =      0 h 00 m 01 s
 Mean elapsed time per time step in seconds =   1.901428699493408E-003
 Time steps remaining =         4100
 Estimated remaining time in seconds =    7.79585766792297     
 Estimated remaining time in hh:mm:ss =      0 h 00 m 07 s
 Estimated total run time in seconds =    9.12685775756836     
 Estimated total run time in hh:mm:ss =      0 h 00 m 09 s
 The run will finish approximately on: Sun Nov 08, 2020 17:31
 
 Creating color image of size          763  x          800  for time step 
         700
 drawing scalar image of the forward wavefield displacement...
 Color image maximum amplitude =   1.627793535590172E-002
 Color image created
 
 
 ******************************************************************
Time step number     800   t =   47.9400 s out of    4800
 ******************************************************************
 We have done    16.64930     % of the total
 Max norm of vector field in solid (elastic) =   1.5065934E-02
 Elapsed time in seconds =    1.52800011634827     
 Elapsed time in hh:mm:ss =      0 h 00 m 01 s
 Mean elapsed time per time step in seconds =   1.910000145435333E-003
 Time steps remaining =         4000
 Estimated remaining time in seconds =    7.64000058174133     
 Estimated remaining time in hh:mm:ss =      0 h 00 m 07 s
 Estimated total run time in seconds =    9.16800069808960     
 Estimated total run time in hh:mm:ss =      0 h 00 m 09 s
 The run will finish approximately on: Sun Nov 08, 2020 17:31
 
 Creating color image of size          763  x          800  for time step 
         800
 drawing scalar image of the forward wavefield displacement...
 Color image maximum amplitude =   1.505493279546499E-002
 Color image created
 
 
 ******************************************************************
Time step number     900   t =   53.9400 s out of    4800
 ******************************************************************
 We have done    18.73307     % of the total
 Max norm of vector field in solid (elastic) =   1.4468007E-02
 Elapsed time in seconds =    1.72600007057190     
 Elapsed time in hh:mm:ss =      0 h 00 m 01 s
 Mean elapsed time per time step in seconds =   1.917777856190999E-003
 Time steps remaining =         3900
 Estimated remaining time in seconds =    7.47933363914490     
 Estimated remaining time in hh:mm:ss =      0 h 00 m 07 s
 Estimated total run time in seconds =    9.20533370971680     
 Estimated total run time in hh:mm:ss =      0 h 00 m 09 s
 The run will finish approximately on: Sun Nov 08, 2020 17:31
 
 Creating color image of size          763  x          800  for time step 
         900
 drawing scalar image of the forward wavefield displacement...
 Color image maximum amplitude =   1.445572450757027E-002
 Color image created
 
 
 ******************************************************************
Time step number    1000   t =   59.9400 s out of    4800
 ******************************************************************
 We have done    20.81684     % of the total
 Max norm of vector field in solid (elastic) =   1.3703011E-02
 Elapsed time in seconds =    1.92400002479553     
 Elapsed time in hh:mm:ss =      0 h 00 m 01 s
 Mean elapsed time per time step in seconds =   1.924000024795532E-003
 Time steps remaining =         3800
 Estimated remaining time in seconds =    7.31120009422302     
 Estimated remaining time in hh:mm:ss =      0 h 00 m 07 s
 Estimated total run time in seconds =    9.23520011901855     
 Estimated total run time in hh:mm:ss =      0 h 00 m 09 s
 The run will finish approximately on: Sun Nov 08, 2020 17:31
 
 
 Total number of time steps done:         1000
 Writing the seismograms by main proc alone took   3.1590462E-04  seconds
 
 Creating color image of size          763  x          800  for time step 
        1000
 drawing scalar image of the forward wavefield displacement...
 Color image maximum amplitude =   1.372520253062248E-002
 Color image created
 
 
 ******************************************************************
Time step number    1100   t =   65.9400 s out of    4800
 ******************************************************************
 We have done    22.90060     % of the total
 Max norm of vector field in solid (elastic) =   1.3082870E-02
 Elapsed time in seconds =    2.12300014495850     
 Elapsed time in hh:mm:ss =      0 h 00 m 02 s
 Mean elapsed time per time step in seconds =   1.930000131780451E-003
 Time steps remaining =         3700
 Estimated remaining time in seconds =    7.14100048758767     
 Estimated remaining time in hh:mm:ss =      0 h 00 m 07 s
 Estimated total run time in seconds =    9.26400063254616     
 Estimated total run time in hh:mm:ss =      0 h 00 m 09 s
 The run will finish approximately on: Sun Nov 08, 2020 17:31
 
 Creating color image of size          763  x          800  for time step 
        1100
 drawing scalar image of the forward wavefield displacement...
 Color image maximum amplitude =   1.300671231001616E-002
 Color image created
 
 
 ******************************************************************
Time step number    1200   t =   71.9400 s out of    4800
 ******************************************************************
 We have done    24.98437     % of the total
 Max norm of vector field in solid (elastic) =   1.2561619E-02
 Elapsed time in seconds =    2.32100009918213     
 Elapsed time in hh:mm:ss =      0 h 00 m 02 s
 Mean elapsed time per time step in seconds =   1.934166749318441E-003
 Time steps remaining =         3600
 Estimated remaining time in seconds =    6.96300029754639     
 Estimated remaining time in hh:mm:ss =      0 h 00 m 06 s
 Estimated total run time in seconds =    9.28400039672852     
 Estimated total run time in hh:mm:ss =      0 h 00 m 09 s
 The run will finish approximately on: Sun Nov 08, 2020 17:31
 
 Creating color image of size          763  x          800  for time step 
        1200
 drawing scalar image of the forward wavefield displacement...
 Color image maximum amplitude =   1.263279188424349E-002
 Color image created
 
 
 ******************************************************************
Time step number    1300   t =   77.9400 s out of    4800
 ******************************************************************
 We have done    27.06814     % of the total
 Max norm of vector field in solid (elastic) =   1.2166994E-02
 Elapsed time in seconds =    2.51999998092651     
 Elapsed time in hh:mm:ss =      0 h 00 m 02 s
 Mean elapsed time per time step in seconds =   1.938461523789626E-003
 Time steps remaining =         3500
 Estimated remaining time in seconds =    6.78461533326369     
 Estimated remaining time in hh:mm:ss =      0 h 00 m 06 s
 Estimated total run time in seconds =    9.30461531419020     
 Estimated total run time in hh:mm:ss =      0 h 00 m 09 s
 The run will finish approximately on: Sun Nov 08, 2020 17:31
 
 Creating color image of size          763  x          800  for time step 
        1300
 drawing scalar image of the forward wavefield displacement...
 Color image maximum amplitude =   1.219728589057922E-002
 Color image created
 
 
 ******************************************************************
Time step number    1400   t =   83.9400 s out of    4800
 ******************************************************************
 We have done    29.15191     % of the total
 Max norm of vector field in solid (elastic) =   1.1869160E-02
 Elapsed time in seconds =    2.72000002861023     
 Elapsed time in hh:mm:ss =      0 h 00 m 02 s
 Mean elapsed time per time step in seconds =   1.942857163293021E-003
 Time steps remaining =         3400
 Estimated remaining time in seconds =    6.60571435519627     
 Estimated remaining time in hh:mm:ss =      0 h 00 m 06 s
 Estimated total run time in seconds =    9.32571438380650     
 Estimated total run time in hh:mm:ss =      0 h 00 m 09 s
 The run will finish approximately on: Sun Nov 08, 2020 17:31
 
 Creating color image of size          763  x          800  for time step 
        1400
 drawing scalar image of the forward wavefield displacement...
 Color image maximum amplitude =   1.185814384371042E-002
 Color image created
 
 
 ******************************************************************
Time step number    1500   t =   89.9400 s out of    4800
 ******************************************************************
 We have done    31.23567     % of the total
 Max norm of vector field in solid (elastic) =   1.1675238E-02
 Elapsed time in seconds =    2.92100000381470     
 Elapsed time in hh:mm:ss =      0 h 00 m 02 s
 Mean elapsed time per time step in seconds =   1.947333335876465E-003
 Time steps remaining =         3300
 Estimated remaining time in seconds =    6.42620000839233     
 Estimated remaining time in hh:mm:ss =      0 h 00 m 06 s
 Estimated total run time in seconds =    9.34720001220703     
 Estimated total run time in hh:mm:ss =      0 h 00 m 09 s
 The run will finish approximately on: Sun Nov 08, 2020 17:31
 
 Creating color image of size          763  x          800  for time step 
        1500
 drawing scalar image of the forward wavefield displacement...
 Color image maximum amplitude =   1.162817981094122E-002
 Color image created
 
 
 ******************************************************************
Time step number    1600   t =   95.9400 s out of    4800
 ******************************************************************
 We have done    33.31944     % of the total
 Max norm of vector field in solid (elastic) =   1.1334633E-02
 Elapsed time in seconds =    3.12300014495850     
 Elapsed time in hh:mm:ss =      0 h 00 m 03 s
 Mean elapsed time per time step in seconds =   1.951875090599060E-003
 Time steps remaining =         3200
 Estimated remaining time in seconds =    6.24600028991699     
 Estimated remaining time in hh:mm:ss =      0 h 00 m 06 s
 Estimated total run time in seconds =    9.36900043487549     
 Estimated total run time in hh:mm:ss =      0 h 00 m 09 s
 The run will finish approximately on: Sun Nov 08, 2020 17:31
 
 Creating color image of size          763  x          800  for time step 
        1600
 drawing scalar image of the forward wavefield displacement...
 Color image maximum amplitude =   1.137506496161222E-002
 Color image created
 
 
 ******************************************************************
Time step number    1700   t =  101.9400 s out of    4800
 ******************************************************************
 We have done    35.40321     % of the total
 Max norm of vector field in solid (elastic) =   1.1136277E-02
 Elapsed time in seconds =    3.32700014114380     
 Elapsed time in hh:mm:ss =      0 h 00 m 03 s
 Mean elapsed time per time step in seconds =   1.957058906555176E-003
 Time steps remaining =         3100
 Estimated remaining time in seconds =    6.06688261032104     
 Estimated remaining time in hh:mm:ss =      0 h 00 m 06 s
 Estimated total run time in seconds =    9.39388275146484     
 Estimated total run time in hh:mm:ss =      0 h 00 m 09 s
 The run will finish approximately on: Sun Nov 08, 2020 17:31
 
 Creating color image of size          763  x          800  for time step 
        1700
 drawing scalar image of the forward wavefield displacement...
 Color image maximum amplitude =   1.114619709551334E-002
 Color image created
 
 
 ******************************************************************
Time step number    1800   t =  107.9400 s out of    4800
 ******************************************************************
 We have done    37.48698     % of the total
 Max norm of vector field in solid (elastic) =   1.0884968E-02
 Elapsed time in seconds =    3.53100013732910     
 Elapsed time in hh:mm:ss =      0 h 00 m 03 s
 Mean elapsed time per time step in seconds =   1.961666742960612E-003
 Time steps remaining =         3000
 Estimated remaining time in seconds =    5.88500022888184     
 Estimated remaining time in hh:mm:ss =      0 h 00 m 05 s
 Estimated total run time in seconds =    9.41600036621094     
 Estimated total run time in hh:mm:ss =      0 h 00 m 09 s
 The run will finish approximately on: Sun Nov 08, 2020 17:31
 
 Creating color image of size          763  x          800  for time step 
        1800
 drawing scalar image of the forward wavefield displacement...
 Color image maximum amplitude =   1.089393999427557E-002
 Color image created
 
 
 ******************************************************************
Time step number    1900   t =  113.9400 s out of    4800
 ******************************************************************
 We have done    39.57074     % of the total
 Max norm of vector field in solid (elastic) =   1.0557490E-02
 Elapsed time in seconds =    3.73600006103516     
 Elapsed time in hh:mm:ss =      0 h 00 m 03 s
 Mean elapsed time per time step in seconds =   1.966315821597451E-003
 Time steps remaining =         2900
 Estimated remaining time in seconds =    5.70231588263261     
 Estimated remaining time in hh:mm:ss =      0 h 00 m 05 s
 Estimated total run time in seconds =    9.43831594366776     
 Estimated total run time in hh:mm:ss =      0 h 00 m 09 s
 The run will finish approximately on: Sun Nov 08, 2020 17:31
 
 Creating color image of size          763  x          800  for time step 
        1900
 drawing scalar image of the forward wavefield displacement...
 Color image maximum amplitude =   1.054879929870367E-002
 Color image created
 
 
 ******************************************************************
Time step number    2000   t =  119.9400 s out of    4800
 ******************************************************************
 We have done    41.65451     % of the total
 Max norm of vector field in solid (elastic) =   1.0393401E-02
 Elapsed time in seconds =    3.94200015068054     
 Elapsed time in hh:mm:ss =      0 h 00 m 03 s
 Mean elapsed time per time step in seconds =   1.971000075340271E-003
 Time steps remaining =         2800
 Estimated remaining time in seconds =    5.51880021095276     
 Estimated remaining time in hh:mm:ss =      0 h 00 m 05 s
 Estimated total run time in seconds =    9.46080036163330     
 Estimated total run time in hh:mm:ss =      0 h 00 m 09 s
 The run will finish approximately on: Sun Nov 08, 2020 17:31
 
 
 Total number of time steps done:         2000
 Writing the seismograms by main proc alone took   1.2874603E-04  seconds
 
 Creating color image of size          763  x          800  for time step 
        2000
 drawing scalar image of the forward wavefield displacement...
 Color image maximum amplitude =   1.040671765804291E-002
 Color image created
 
 
 ******************************************************************
Time step number    2100   t =  125.9400 s out of    4800
 ******************************************************************
 We have done    43.73828     % of the total
 Max norm of vector field in solid (elastic) =   9.4314450E-03
 Elapsed time in seconds =    4.14700007438660     
 Elapsed time in hh:mm:ss =      0 h 00 m 04 s
 Mean elapsed time per time step in seconds =   1.974761940184094E-003
 Time steps remaining =         2700
 Estimated remaining time in seconds =    5.33185723849705     
 Estimated remaining time in hh:mm:ss =      0 h 00 m 05 s
 Estimated total run time in seconds =    9.47885731288365     
 Estimated total run time in hh:mm:ss =      0 h 00 m 09 s
 The run will finish approximately on: Sun Nov 08, 2020 17:31
 
 Creating color image of size          763  x          800  for time step 
        2100
 drawing scalar image of the forward wavefield displacement...
 Color image maximum amplitude =   9.318399243056774E-003
 Color image created
 
 
 ******************************************************************
Time step number    2200   t =  131.9400 s out of    4800
 ******************************************************************
 We have done    45.82204     % of the total
 Max norm of vector field in solid (elastic) =   7.9728840E-03
 Elapsed time in seconds =    4.35100007057190     
 Elapsed time in hh:mm:ss =      0 h 00 m 04 s
 Mean elapsed time per time step in seconds =   1.977727304805409E-003
 Time steps remaining =         2600
 Estimated remaining time in seconds =    5.14209099249406     
 Estimated remaining time in hh:mm:ss =      0 h 00 m 05 s
 Estimated total run time in seconds =    9.49309106306596     
 Estimated total run time in hh:mm:ss =      0 h 00 m 09 s
 The run will finish approximately on: Sun Nov 08, 2020 17:31
 
 Creating color image of size          763  x          800  for time step 
        2200
 drawing scalar image of the forward wavefield displacement...
 Color image maximum amplitude =   7.951299659907818E-003
 Color image created
 
 
 ******************************************************************
Time step number    2300   t =  137.9400 s out of    4800
 ******************************************************************
 We have done    47.90582     % of the total
 Max norm of vector field in solid (elastic) =   7.8851394E-03
 Elapsed time in seconds =    4.55400013923645     
 Elapsed time in hh:mm:ss =      0 h 00 m 04 s
 Mean elapsed time per time step in seconds =   1.980000060537587E-003
 Time steps remaining =         2500
 Estimated remaining time in seconds =    4.95000015134397     
 Estimated remaining time in hh:mm:ss =      0 h 00 m 04 s
 Estimated total run time in seconds =    9.50400029058042     
 Estimated total run time in hh:mm:ss =      0 h 00 m 09 s
 The run will finish approximately on: Sun Nov 08, 2020 17:31
 
 Creating color image of size          763  x          800  for time step 
        2300
 drawing scalar image of the forward wavefield displacement...
 Color image maximum amplitude =   7.892016321420670E-003
 Color image created
 
 
 ******************************************************************
Time step number    2400   t =  143.9400 s out of    4800
 ******************************************************************
 We have done    49.98958     % of the total
 Max norm of vector field in solid (elastic) =   7.7909692E-03
 Elapsed time in seconds =    4.75600004196167     
 Elapsed time in hh:mm:ss =      0 h 00 m 04 s
 Mean elapsed time per time step in seconds =   1.981666684150696E-003
 Time steps remaining =         2400
 Estimated remaining time in seconds =    4.75600004196167     
 Estimated remaining time in hh:mm:ss =      0 h 00 m 04 s
 Estimated total run time in seconds =    9.51200008392334     
 Estimated total run time in hh:mm:ss =      0 h 00 m 09 s
 The run will finish approximately on: Sun Nov 08, 2020 17:31
 
 Creating color image of size          763  x          800  for time step 
        2400
 drawing scalar image of the forward wavefield displacement...
 Color image maximum amplitude =   7.780106272548437E-003
 Color image created
 
 
 ******************************************************************
Time step number    2500   t =  149.9400 s out of    4800
 ******************************************************************
 We have done    52.07335     % of the total
 Max norm of vector field in solid (elastic) =   7.7325217E-03
 Elapsed time in seconds =    4.95700001716614     
 Elapsed time in hh:mm:ss =      0 h 00 m 04 s
 Mean elapsed time per time step in seconds =   1.982800006866455E-003
 Time steps remaining =         2300
 Estimated remaining time in seconds =    4.56044001579285     
 Estimated remaining time in hh:mm:ss =      0 h 00 m 04 s
 Estimated total run time in seconds =    9.51744003295898     
 Estimated total run time in hh:mm:ss =      0 h 00 m 09 s
 The run will finish approximately on: Sun Nov 08, 2020 17:31
 
 Creating color image of size          763  x          800  for time step 
        2500
 drawing scalar image of the forward wavefield displacement...
 Color image maximum amplitude =   7.738277316093445E-003
 Color image created
 
 
 ******************************************************************
Time step number    2600   t =  155.9400 s out of    4800
 ******************************************************************
 We have done    54.15712     % of the total
 Max norm of vector field in solid (elastic) =   7.5953756E-03
 Elapsed time in seconds =    5.15700006484985     
 Elapsed time in hh:mm:ss =      0 h 00 m 05 s
 Mean elapsed time per time step in seconds =   1.983461563403790E-003
 Time steps remaining =         2200
 Estimated remaining time in seconds =    4.36361543948834     
 Estimated remaining time in hh:mm:ss =      0 h 00 m 04 s
 Estimated total run time in seconds =    9.52061550433819     
 Estimated total run time in hh:mm:ss =      0 h 00 m 09 s
 The run will finish approximately on: Sun Nov 08, 2020 17:31
 
 Creating color image of size          763  x          800  for time step 
        2600
 drawing scalar image of the forward wavefield displacement...
 Color image maximum amplitude =   7.582242134958506E-003
 Color image created
 
 
 ******************************************************************
Time step number    2700   t =  161.9400 s out of    4800
 ******************************************************************
 We have done    56.24088     % of the total
 Max norm of vector field in solid (elastic) =   6.5968144E-03
 Elapsed time in seconds =    5.35599994659424     
 Elapsed time in hh:mm:ss =      0 h 00 m 05 s
 Mean elapsed time per time step in seconds =   1.983703683923792E-003
 Time steps remaining =         2100
 Estimated remaining time in seconds =    4.16577773623996     
 Estimated remaining time in hh:mm:ss =      0 h 00 m 04 s
 Estimated total run time in seconds =    9.52177768283420     
 Estimated total run time in hh:mm:ss =      0 h 00 m 09 s
 The run will finish approximately on: Sun Nov 08, 2020 17:31
 
 Creating color image of size          763  x          800  for time step 
        2700
 drawing scalar image of the forward wavefield displacement...
 Color image maximum amplitude =   6.577511783689260E-003
 Color image created
 
 
 ******************************************************************
Time step number    2800   t =  167.9400 s out of    4800
 ******************************************************************
 We have done    58.32465     % of the total
 Max norm of vector field in solid (elastic) =   1.9797361E-03
 Elapsed time in seconds =    5.55599999427795     
 Elapsed time in hh:mm:ss =      0 h 00 m 05 s
 Mean elapsed time per time step in seconds =   1.984285712242127E-003
 Time steps remaining =         2000
 Estimated remaining time in seconds =    3.96857142448425     
 Estimated remaining time in hh:mm:ss =      0 h 00 m 03 s
 Estimated total run time in seconds =    9.52457141876221     
 Estimated total run time in hh:mm:ss =      0 h 00 m 09 s
 The run will finish approximately on: Sun Nov 08, 2020 17:31
 
 Creating color image of size          763  x          800  for time step 
        2800
 drawing scalar image of the forward wavefield displacement...
 Color image maximum amplitude =   1.959209330379963E-003
 Color image created
 
 
 ******************************************************************
Time step number    2900   t =  173.9400 s out of    4800
 ******************************************************************
 We have done    60.40842     % of the total
 Max norm of vector field in solid (elastic) =   1.1930031E-03
 Elapsed time in seconds =    5.76200008392334     
 Elapsed time in hh:mm:ss =      0 h 00 m 05 s
 Mean elapsed time per time step in seconds =   1.986896580663221E-003
 Time steps remaining =         1900
 Estimated remaining time in seconds =    3.77510350326012     
 Estimated remaining time in hh:mm:ss =      0 h 00 m 03 s
 Estimated total run time in seconds =    9.53710358718346     
 Estimated total run time in hh:mm:ss =      0 h 00 m 09 s
 The run will finish approximately on: Sun Nov 08, 2020 17:31
 
 Creating color image of size          763  x          800  for time step 
        2900
 drawing scalar image of the forward wavefield displacement...
 Color image maximum amplitude =   1.194491167552769E-003
 Color image created
 
 
 ******************************************************************
Time step number    3000   t =  179.9400 s out of    4800
 ******************************************************************
 We have done    62.49219     % of the total
 Max norm of vector field in solid (elastic) =   1.3303709E-03
 Elapsed time in seconds =    5.97000002861023     
 Elapsed time in hh:mm:ss =      0 h 00 m 05 s
 Mean elapsed time per time step in seconds =   1.990000009536743E-003
 Time steps remaining =         1800
 Estimated remaining time in seconds =    3.58200001716614     
 Estimated remaining time in hh:mm:ss =      0 h 00 m 03 s
 Estimated total run time in seconds =    9.55200004577637     
 Estimated total run time in hh:mm:ss =      0 h 00 m 09 s
 The run will finish approximately on: Sun Nov 08, 2020 17:31
 
 
 Total number of time steps done:         3000
 Writing the seismograms by main proc alone took   1.2397766E-04  seconds
 
 Creating color image of size          763  x          800  for time step 
        3000
 drawing scalar image of the forward wavefield displacement...
 Color image maximum amplitude =   1.326954574324191E-003
 Color image created
 
 
 ******************************************************************
Time step number    3100   t =  185.9400 s out of    4800
 ******************************************************************
 We have done    64.57595     % of the total
 Max norm of vector field in solid (elastic) =   1.5418214E-03
 Elapsed time in seconds =    6.17799997329712     
 Elapsed time in hh:mm:ss =      0 h 00 m 06 s
 Mean elapsed time per time step in seconds =   1.992903217192619E-003
 Time steps remaining =         1700
 Estimated remaining time in seconds =    3.38793546922745     
 Estimated remaining time in hh:mm:ss =      0 h 00 m 03 s
 Estimated total run time in seconds =    9.56593544252457     
 Estimated total run time in hh:mm:ss =      0 h 00 m 09 s
 The run will finish approximately on: Sun Nov 08, 2020 17:31
 
 Creating color image of size          763  x          800  for time step 
        3100
 drawing scalar image of the forward wavefield displacement...
 Color image maximum amplitude =   1.531413872726262E-003
 Color image created
 
 
 ******************************************************************
Time step number    3200   t =  191.9400 s out of    4800
 ******************************************************************
 We have done    66.65972     % of the total
 Max norm of vector field in solid (elastic) =   9.6896396E-04
 Elapsed time in seconds =    6.38499999046326     
 Elapsed time in hh:mm:ss =      0 h 00 m 06 s
 Mean elapsed time per time step in seconds =   1.995312497019768E-003
 Time steps remaining =         1600
 Estimated remaining time in seconds =    3.19249999523163     
 Estimated remaining time in hh:mm:ss =      0 h 00 m 03 s
 Estimated total run time in seconds =    9.57749998569489     
 Estimated total run time in hh:mm:ss =      0 h 00 m 09 s
 The run will finish approximately on: Sun Nov 08, 2020 17:31
 
 Creating color image of size          763  x          800  for time step 
        3200
 drawing scalar image of the forward wavefield displacement...
 Color image maximum amplitude =   9.731278405524790E-004
 Color image created
 
 
 ******************************************************************
Time step number    3300   t =  197.9400 s out of    4800
 ******************************************************************
 We have done    68.74348     % of the total
 Max norm of vector field in solid (elastic) =   1.0259737E-03
 Elapsed time in seconds =    6.59299993515015     
 Elapsed time in hh:mm:ss =      0 h 00 m 06 s
 Mean elapsed time per time step in seconds =   1.997878768227317E-003
 Time steps remaining =         1500
 Estimated remaining time in seconds =    2.99681815234098     
 Estimated remaining time in hh:mm:ss =      0 h 00 m 02 s
 Estimated total run time in seconds =    9.58981808749112     
 Estimated total run time in hh:mm:ss =      0 h 00 m 09 s
 The run will finish approximately on: Sun Nov 08, 2020 17:31
 
 Creating color image of size          763  x          800  for time step 
        3300
 drawing scalar image of the forward wavefield displacement...
 Color image maximum amplitude =   1.032994594424963E-003
 Color image created
 
 
 ******************************************************************
Time step number    3400   t =  203.9400 s out of    4800
 ******************************************************************
 We have done    70.82726     % of the total
 Max norm of vector field in solid (elastic) =   1.0180166E-03
 Elapsed time in seconds =    6.79900002479553     
 Elapsed time in hh:mm:ss =      0 h 00 m 06 s
 Mean elapsed time per time step in seconds =   1.999705889645745E-003
 Time steps remaining =         1400
 Estimated remaining time in seconds =    2.79958824550404     
 Estimated remaining time in hh:mm:ss =      0 h 00 m 02 s
 Estimated total run time in seconds =    9.59858827029958     
 Estimated total run time in hh:mm:ss =      0 h 00 m 09 s
 The run will finish approximately on: Sun Nov 08, 2020 17:31
 
 Creating color image of size          763  x          800  for time step 
        3400
 drawing scalar image of the forward wavefield displacement...
 Color image maximum amplitude =   1.020353287458420E-003
 Color image created
 
 
 ******************************************************************
Time step number    3500   t =  209.9400 s out of    4800
 ******************************************************************
 We have done    72.91103     % of the total
 Max norm of vector field in solid (elastic) =   7.6220767E-04
 Elapsed time in seconds =    7.00500011444092     
 Elapsed time in hh:mm:ss =      0 h 00 m 07 s
 Mean elapsed time per time step in seconds =   2.001428604125977E-003
 Time steps remaining =         1300
 Estimated remaining time in seconds =    2.60185718536377     
 Estimated remaining time in hh:mm:ss =      0 h 00 m 02 s
 Estimated total run time in seconds =    9.60685729980469     
 Estimated total run time in hh:mm:ss =      0 h 00 m 09 s
 The run will finish approximately on: Sun Nov 08, 2020 17:31
 
 Creating color image of size          763  x          800  for time step 
        3500
 drawing scalar image of the forward wavefield displacement...
 Color image maximum amplitude =   7.604968268424273E-004
 Color image created
 
 
 ******************************************************************
Time step number    3600   t =  215.9400 s out of    4800
 ******************************************************************
 We have done    74.99479     % of the total
 Max norm of vector field in solid (elastic) =   5.7688635E-04
 Elapsed time in seconds =    7.21099996566772     
 Elapsed time in hh:mm:ss =      0 h 00 m 07 s
 Mean elapsed time per time step in seconds =   2.003055546018812E-003
 Time steps remaining =         1200
 Estimated remaining time in seconds =    2.40366665522257     
 Estimated remaining time in hh:mm:ss =      0 h 00 m 02 s
 Estimated total run time in seconds =    9.61466662089030     
 Estimated total run time in hh:mm:ss =      0 h 00 m 09 s
 The run will finish approximately on: Sun Nov 08, 2020 17:31
 
 Creating color image of size          763  x          800  for time step 
        3600
 drawing scalar image of the forward wavefield displacement...
 Color image maximum amplitude =   5.742692737840116E-004
 Color image created
 
 
 ******************************************************************
Time step number    3700   t =  221.9400 s out of    4800
 ******************************************************************
 We have done    77.07856     % of the total
 Max norm of vector field in solid (elastic) =   5.0297461E-04
 Elapsed time in seconds =    7.41900014877319     
 Elapsed time in hh:mm:ss =      0 h 00 m 07 s
 Mean elapsed time per time step in seconds =   2.005135175344106E-003
 Time steps remaining =         1100
 Estimated remaining time in seconds =    2.20564869287852     
 Estimated remaining time in hh:mm:ss =      0 h 00 m 02 s
 Estimated total run time in seconds =    9.62464884165171     
 Estimated total run time in hh:mm:ss =      0 h 00 m 09 s
 The run will finish approximately on: Sun Nov 08, 2020 17:31
 
 Creating color image of size          763  x          800  for time step 
        3700
 drawing scalar image of the forward wavefield displacement...
 Color image maximum amplitude =   5.018180818296969E-004
 Color image created
 
 
 ******************************************************************
Time step number    3800   t =  227.9400 s out of    4800
 ******************************************************************
 We have done    79.16232     % of the total
 Max norm of vector field in solid (elastic) =   4.6834387E-04
 Elapsed time in seconds =    7.62899994850159     
 Elapsed time in hh:mm:ss =      0 h 00 m 07 s
 Mean elapsed time per time step in seconds =   2.007631565395154E-003
 Time steps remaining =         1000
 Estimated remaining time in seconds =    2.00763156539515     
 Estimated remaining time in hh:mm:ss =      0 h 00 m 02 s
 Estimated total run time in seconds =    9.63663151389674     
 Estimated total run time in hh:mm:ss =      0 h 00 m 09 s
 The run will finish approximately on: Sun Nov 08, 2020 17:31
 
 Creating color image of size          763  x          800  for time step 
        3800
 drawing scalar image of the forward wavefield displacement...
 Color image maximum amplitude =   4.669355985242873E-004
 Color image created
 
 
 ******************************************************************
Time step number    3900   t =  233.9400 s out of    4800
 ******************************************************************
 We have done    81.24609     % of the total
 Max norm of vector field in solid (elastic) =   4.3735874E-04
 Elapsed time in seconds =    7.84400010108948     
 Elapsed time in hh:mm:ss =      0 h 00 m 07 s
 Mean elapsed time per time step in seconds =   2.011282077202430E-003
 Time steps remaining =          900
 Estimated remaining time in seconds =    1.81015386948219     
 Estimated remaining time in hh:mm:ss =      0 h 00 m 01 s
 Estimated total run time in seconds =    9.65415397057166     
 Estimated total run time in hh:mm:ss =      0 h 00 m 09 s
 The run will finish approximately on: Sun Nov 08, 2020 17:31
 
 Creating color image of size          763  x          800  for time step 
        3900
 drawing scalar image of the forward wavefield displacement...
 Color image maximum amplitude =   4.361790779512376E-004
 Color image created
 
 
 ******************************************************************
Time step number    4000   t =  239.9400 s out of    4800
 ******************************************************************
 We have done    83.32986     % of the total
 Max norm of vector field in solid (elastic) =   4.0944267E-04
 Elapsed time in seconds =    8.05800008773804     
 Elapsed time in hh:mm:ss =      0 h 00 m 08 s
 Mean elapsed time per time step in seconds =   2.014500021934509E-003
 Time steps remaining =          800
 Estimated remaining time in seconds =    1.61160001754761     
 Estimated remaining time in hh:mm:ss =      0 h 00 m 01 s
 Estimated total run time in seconds =    9.66960010528564     
 Estimated total run time in hh:mm:ss =      0 h 00 m 09 s
 The run will finish approximately on: Sun Nov 08, 2020 17:31
 
 
 Total number of time steps done:         4000
 Writing the seismograms by main proc alone took   1.2111664E-04  seconds
 
 Creating color image of size          763  x          800  for time step 
        4000
 drawing scalar image of the forward wavefield displacement...
 Color image maximum amplitude =   4.088520072400570E-004
 Color image created
 
 
 ******************************************************************
Time step number    4100   t =  245.9400 s out of    4800
 ******************************************************************
 We have done    85.41363     % of the total
 Max norm of vector field in solid (elastic) =   3.8292710E-04
 Elapsed time in seconds =    8.27200007438660     
 Elapsed time in hh:mm:ss =      0 h 00 m 08 s
 Mean elapsed time per time step in seconds =   2.017560993752829E-003
 Time steps remaining =          700
 Estimated remaining time in seconds =    1.41229269562698     
 Estimated remaining time in hh:mm:ss =      0 h 00 m 01 s
 Estimated total run time in seconds =    9.68429277001358     
 Estimated total run time in hh:mm:ss =      0 h 00 m 09 s
 The run will finish approximately on: Sun Nov 08, 2020 17:31
 
 Creating color image of size          763  x          800  for time step 
        4100
 drawing scalar image of the forward wavefield displacement...
 Color image maximum amplitude =   3.832014626823366E-004
 Color image created
 
 
 ******************************************************************
Time step number    4200   t =  251.9400 s out of    4800
 ******************************************************************
 We have done    87.49740     % of the total
 Max norm of vector field in solid (elastic) =   3.5576685E-04
 Elapsed time in seconds =    8.48800015449524     
 Elapsed time in hh:mm:ss =      0 h 00 m 08 s
 Mean elapsed time per time step in seconds =   2.020952417736962E-003
 Time steps remaining =          600
 Estimated remaining time in seconds =    1.21257145064218     
 Estimated remaining time in hh:mm:ss =      0 h 00 m 01 s
 Estimated total run time in seconds =    9.70057160513742     
 Estimated total run time in hh:mm:ss =      0 h 00 m 09 s
 The run will finish approximately on: Sun Nov 08, 2020 17:31
 
 Creating color image of size          763  x          800  for time step 
        4200
 drawing scalar image of the forward wavefield displacement...
 Color image maximum amplitude =   3.571197448763996E-004
 Color image created
 
 
 ******************************************************************
Time step number    4300   t =  257.9400 s out of    4800
 ******************************************************************
 We have done    89.58116     % of the total
 Max norm of vector field in solid (elastic) =   3.3625815E-04
 Elapsed time in seconds =    8.70399999618530     
 Elapsed time in hh:mm:ss =      0 h 00 m 08 s
 Mean elapsed time per time step in seconds =   2.024186045624489E-003
 Time steps remaining =          500
 Estimated remaining time in seconds =    1.01209302281224     
 Estimated remaining time in hh:mm:ss =      0 h 00 m 01 s
 Estimated total run time in seconds =    9.71609301899755     
 Estimated total run time in hh:mm:ss =      0 h 00 m 09 s
 The run will finish approximately on: Sun Nov 08, 2020 17:31
 
 Creating color image of size          763  x          800  for time step 
        4300
 drawing scalar image of the forward wavefield displacement...
 Color image maximum amplitude =   3.349752805661410E-004
 Color image created
 
 
 ******************************************************************
Time step number    4400   t =  263.9400 s out of    4800
 ******************************************************************
 We have done    91.66493     % of the total
 Max norm of vector field in solid (elastic) =   3.1625322E-04
 Elapsed time in seconds =    8.92000007629395     
 Elapsed time in hh:mm:ss =      0 h 00 m 08 s
 Mean elapsed time per time step in seconds =   2.027272744612260E-003
 Time steps remaining =          400
 Estimated remaining time in seconds =   0.810909097844904     
 Estimated remaining time in hh:mm:ss =      0 h 00 m 00 s
 Estimated total run time in seconds =    9.73090917413885     
 Estimated total run time in hh:mm:ss =      0 h 00 m 09 s
 The run will finish approximately on: Sun Nov 08, 2020 17:31
 
 Creating color image of size          763  x          800  for time step 
        4400
 drawing scalar image of the forward wavefield displacement...
 Color image maximum amplitude =   3.164951340295374E-004
 Color image created
 
 
 ******************************************************************
Time step number    4500   t =  269.9400 s out of    4800
 ******************************************************************
 We have done    93.74870     % of the total
 Max norm of vector field in solid (elastic) =   2.9453286E-04
 Elapsed time in seconds =    9.13499999046326     
 Elapsed time in hh:mm:ss =      0 h 00 m 09 s
 Mean elapsed time per time step in seconds =   2.029999997880724E-003
 Time steps remaining =          300
 Estimated remaining time in seconds =   0.608999999364217     
 Estimated remaining time in hh:mm:ss =      0 h 00 m 00 s
 Estimated total run time in seconds =    9.74399998982747     
 Estimated total run time in hh:mm:ss =      0 h 00 m 09 s
 The run will finish approximately on: Sun Nov 08, 2020 17:31
 
 Creating color image of size          763  x          800  for time step 
        4500
 drawing scalar image of the forward wavefield displacement...
 Color image maximum amplitude =   2.947737521026284E-004
 Color image created
 
 
 ******************************************************************
Time step number    4600   t =  275.9400 s out of    4800
 ******************************************************************
 We have done    95.83247     % of the total
 Max norm of vector field in solid (elastic) =   2.6743850E-04
 Elapsed time in seconds =    9.34800004959106     
 Elapsed time in hh:mm:ss =      0 h 00 m 09 s
 Mean elapsed time per time step in seconds =   2.032173923824144E-003
 Time steps remaining =          200
 Estimated remaining time in seconds =   0.406434784764829     
 Estimated remaining time in hh:mm:ss =      0 h 00 m 00 s
 Estimated total run time in seconds =    9.75443483435589     
 Estimated total run time in hh:mm:ss =      0 h 00 m 09 s
 The run will finish approximately on: Sun Nov 08, 2020 17:31
 
 Creating color image of size          763  x          800  for time step 
        4600
 drawing scalar image of the forward wavefield displacement...
 Color image maximum amplitude =   2.654404379427433E-004
 Color image created
 
 
 ******************************************************************
Time step number    4700   t =  281.9400 s out of    4800
 ******************************************************************
 We have done    97.91623     % of the total
 Max norm of vector field in solid (elastic) =   2.4601983E-04
 Elapsed time in seconds =    9.55999994277954     
 Elapsed time in hh:mm:ss =      0 h 00 m 09 s
 Mean elapsed time per time step in seconds =   2.034042541016924E-003
 Time steps remaining =          100
 Estimated remaining time in seconds =   0.203404254101692     
 Estimated remaining time in hh:mm:ss =      0 h 00 m 00 s
 Estimated total run time in seconds =    9.76340419688123     
 Estimated total run time in hh:mm:ss =      0 h 00 m 09 s
 The run will finish approximately on: Sun Nov 08, 2020 17:31
 
 Creating color image of size          763  x          800  for time step 
        4700
 drawing scalar image of the forward wavefield displacement...
 Color image maximum amplitude =   2.443014818709344E-004
 Color image created
 
 
 ******************************************************************
Time step number    4800   t =  287.9400 s out of    4800
 ******************************************************************
 We have done    100.0000     % of the total
 Max norm of vector field in solid (elastic) =   2.3513824E-04
 Elapsed time in seconds =    9.76999998092651     
 Elapsed time in hh:mm:ss =      0 h 00 m 09 s
 Mean elapsed time per time step in seconds =   2.035416662693024E-003
 Time steps remaining =            0
 Estimated remaining time in seconds =   0.000000000000000E+000
 Estimated remaining time in hh:mm:ss =      0 h 00 m 00 s
 Estimated total run time in seconds =    9.76999998092651     
 Estimated total run time in hh:mm:ss =      0 h 00 m 09 s
 
 
 Total number of time steps done:         4800
 Writing the seismograms by main proc alone took   9.4413757E-05  seconds
 
 Creating color image of size          763  x          800  for time step 
        4800
 drawing scalar image of the forward wavefield displacement...
 Color image maximum amplitude =   2.360925573157147E-004
 Color image created
 
 
 Total duration of the time loop in seconds =    9.807837      s
 Total number of time steps =         4800
 Average duration of a time step of the time loop =   2.0432994E-03  s
 Total number of spectral elements in the mesh =         1600
     of which         1600  are regular elements
     and            0  are PML elements.
 Average duration of the calculation per spectral element =   1.2770621E-06  s
 


 -------------------------------------------------------------------------------
 -------------------------------------------------------------------------------
 Program SPECFEM2D: 
 -------------------------------------------------------------------------------
 -------------------------------------------------------------------------------
 checkers
 -------------------------------------------------------------------------------
 -------------------------------------------------------------------------------
 D a t e : 08 - 11 - 2020                                 T i m e  : 17:30:44
 -------------------------------------------------------------------------------
 -------------------------------------------------------------------------------
