 
 **********************************************
 **** Specfem 2-D Solver - serial version  ****
 **********************************************
 
 Running Git version of the code corresponding to 
 commit a213b4bf06b5a89d16eef4d10eba8346c3d9607f
 dating From Date:   Thu Oct 1 10:54:07 2020 -0400
 
 
 NDIM =            2
 
 NGLLX =            5
 NGLLZ =            5
 
 using single precision for the calculations
 
 smallest and largest possible floating-point numbers are:   1.1754944E-38
  3.4028235E+38
 
 Reading the parameter file...
 
 Title of the simulation: checkers
 
 
 Parameter file successfully read 
 
 Reading in SOURCE file...
 
 Source           1
   Position xs, zs =    223849.600000000        259437.840000000     
 
   Source type (1=force, 2=moment tensor):            1
   Force source:
   Angle of the source (deg) =   0.000000000000000E+000
 
   Time function type (1=Ricker, 2=First derivative, 3=Gaussian, 4=Dirac, 5=Heav
 iside, 6,7=ocean type, 8=Read from file, 9=burst, 10=Sinusoidal, 11=Ormsby):
           1
   Ricker wavelet (second-derivative):
   Frequency, delay =   8.400000000000001E-002  0.000000000000000E+000
   Multiplying factor  =    10000000000.0000     
 
 all sources are okay
 


 -------------------------------------------------------------------------------
 -------------------------------------------------------------------------------
 Program SPECFEM2D: 
 -------------------------------------------------------------------------------
 -------------------------------------------------------------------------------
 checkers
 -------------------------------------------------------------------------------
 -------------------------------------------------------------------------------
 D a t e : 08 - 11 - 2020                                 T i m e  : 17:32:30
 -------------------------------------------------------------------------------
 -------------------------------------------------------------------------------


 C o n t r o l
 =============

     Number of spectral element control nodes. . .(npgeo) =    6561
     Number of space dimensions. . . . . . . . . . (NDIM) =       2


 C o n t r o l
 =============

     Display frequency . . . .(NSTEP_BETWEEN_OUTPUT_INFO) =    100
     Color display . . . . . . . . . . . . . . . (colors) =      1
      == 0     black and white display              
      == 1     color display                        
     Numbered mesh . . . . . . . . . . . . . . .(numbers) =      0
      == 0     do not number the mesh               
      == 1     number the mesh                      


 C o n t r o l
 =============

     Seismograms recording type . . . . . . .(seismotype) = 1
     Angle for first line of receivers. . . . .(anglerec) =   0.00


 C o n t r o l
 =============

     Read external initial field. . . . . .(initialfield) =      F
     Add Bielak conditions (add_Bielak_conditions_bottom) =      F
     Add Bielak conditions .(add_Bielak_conditions_right) =      F
     Add Bielak conditions . .(add_Bielak_conditions_top) =      F
     Add Bielak conditions. .(add_Bielak_conditions_left) =      F
     Attenuation in solid . . .(ATTENUATION_VISCOELASTIC) =      F
     Attenuation in fluid . . (ATTENUATION_VISCOACOUSTIC) =      F
     Save grid in ASCII file or not . (output_grid_ASCII) =      F
     Save a file with total energy or not.(OUTPUT_ENERGY) =      F


 C o n t r o l
 =============

     Vector display type . . . . . . . . .(imagetype_postscript) =      1
     Percentage of cut for vector plots. . . . . . . .(cutsnaps) =   1.00
     Subsampling of velocity model display. (subsamp_postscript) =      1


 I t e r a t i o n s 
 ===================

     Number of time iterations . . . . .(NSTEP) =    4800
     Time step increment. . . . . . . . . .(DT) =   6.000000E-02
     Total simulation duration . . . . . (ttot) =   2.880000E+02
 
 
 reading mesh databases...
 

 -- Spectral Elements --


     Number of spectral elements . . . . . . . . .  (nspec) =   1600
     Number of control nodes per element . . . . . (ngnod) =      9
     Number of points in X-direction . . . . . . . (NGLLX) =      5
     Number of points in Y-direction . . . . . . . (NGLLZ) =      5
     Number of points per element. . . . . . (NGLLX*NGLLZ) =     25
     Number of points for display . . . . . . (pointsdisp) =      6
     Number of element material sets . . . . . . . (numat) =      1
     Number of acoustic forcing elements (nelem_acforcing) =      0
     Number of acoustic free surf (nelem_acoustic_surface) =      0


 M a t e r i a l   s e t s :   2 D  (p o r o) e l a s t i c i t y
 ======================================================

     Number of material sets . . . . . . (numat) =     1


     ----------------------------------------
     -- Elastic (solid) isotropic material --
     ----------------------------------------
     Material set number. . . . . . . . (jmat) =     1
     P-wave velocity. . . . . . . . . . . (cp) = 5.80000000E+03
     S-wave velocity. . . . . . . . . . . (cs) = 3.50000000E+03
     Mass density. . . . . . . . . . (density) = 2.60000000E+03
     Poisson's ratio. . . . . . . . .(poisson) = 2.13651239E-01
     First Lame parameter Lambda. . . (lambda) = 2.37640000E+10
     Second Lame parameter Mu. . . . . . .(mu) = 3.18500000E+10
     Bulk modulus Kappa . . . . . . . .(kappa) = 5.56140000E+10
     Young's modulus E. . . . . . . . .(young) = 8.02334925E+10
     QKappa_attenuation .  . . . . . .(QKappa) = 1.00000000E+01
     Qmu_attenuation . . . . . . . . . . (Qmu) = 1.00000000E+01
 
 
 reading absorbing boundary...
   number of absorbing elements =          160
 
   any absorbing boundary flag  =  T
   PML boundary flag            =  F
   Stacey boundary flag         =  T
 
 
 Absorbing boundaries:
   using Stacey absorbing boundary conditions
 
 Number of absorbing elements:          160
   nspec_left   =           40
   nspec_right  =           40
   nspec_bottom =           40
   nspec_top    =           40
 
 
 Setting up mesh
 
 Generating global mesh numbering (fast version)...
 
 Mesh numbering:
   Total number of elements:         1600
 
   Total number of acoustic elements           =            0
   Total number of elastic/visco/poro elements =         1600
 
 Exact total number of grid points in the mesh:        25921
 Mesh dimensions:
   Xmin,Xmax of the whole mesh =   0.000000000000000E+000
   480000.000000000     
   Zmin,Zmax of the whole mesh =   0.000000000000000E+000
   480000.000000000     
 
 
 setup material arrays
 Domains:
   total number of acoustic elements        =            0
   total number of elastic elements         =         1600
   total number of poroelastic elements     =            0
 
 Setting up MPI communication arrays
 
   maximum number of MPI interfaces (for a single slice) =            0
 
   This is a single process simulation, no need for MPI communication
 
   number of outer elements  =            0
   number of inner elements  =         1600
 
   percentage of outer elements   0.0000000E+00 %
   percentage of inner elements    100.0000     %
 
   number of global nodes in outer elements  =            0
   number of global nodes in inner elements  =        25921
 
   determining communication phases:
   elastic domains:
   total number of outer/inner elements =            0        1600
   total percentage of outer elements   0.0000000E+00 %
   total percentage of inner elements    100.0000     %
 
 All mesh setup done successfully
 
 sources:
   Total number of sources:            1
 
 
   Setting parameters for source           1
 
     Source Type. . . . . . . . . . . . . . = Collocated Force
     X-position (meters). . . . . . . . . . =    2.2384960000E+05
     Y-position (meters). . . . . . . . . . =    2.5943784000E+05
     Fundamental frequency (Hz) . . . . . . =    8.4000000000E-02
     Time delay (s) . . . . . . . . . . . . =    0.0000000000E+00
     Multiplying factor . . . . . . . . . . =    1.0000000000E+10
     Angle from vertical direction (deg). . =    0.0000000000E+00

 
   Source:            1
     Onset time. . . . . . =   -14.2857142857143     
     Fundamental period. . =    11.9047619047619     
     Fundamental frequency =   8.400000000000001E-002
     The onset time is ok
 
 Source:            1
 *******************************
  locating force source
 *******************************
 
 Force source:
             original x:    223849.6    
             original z:    259437.8    
 Closest estimate found:   2.9103830E-11  m away
  in rank            0
  in element          859
  in elastic domain
  at xi,gamma coordinates =   0.308266666666668       0.239639999999999     
 
 
 end of force source detection
 
 
 receivers:
 
 Total number of receivers =           22
 
 
 ********************
  locating receivers
 ********************
 
 reading receiver information from the ./DATA/STATIONS file
 
 
 Station #            1     AA      S0001                           
             original x:    300.0000    
             original z:    480000.0    
 Closest estimate found:   5.8207689E-11  m away
  in element         1561
  in rank            0
  at xi,gamma coordinates =  -0.950000000000000        1.00000000000000     
 Distance from source:    314041.5      m
 
 
 Station #            2     AA      S0002                           
             original x:    640.0000    
             original z:    480000.0    
 Closest estimate found:   1.1368684E-13  m away
  in element         1561
  in rank            0
  at xi,gamma coordinates =  -0.893333333333333        1.00000000000000     
 Distance from source:    313799.6      m
 
 
 Station #            3     AA      S0003                           
             original x:    980.0000    
             original z:    480000.0    
 Closest estimate found:   5.8208105E-11  m away
  in element         1561
  in rank            0
  at xi,gamma coordinates =  -0.836666666666667        1.00000000000000     
 Distance from source:    313557.8      m
 
 
 Station #            4     AA      S0004                           
             original x:    1320.000    
             original z:    480000.0    
 Closest estimate found:   5.8208105E-11  m away
  in element         1561
  in rank            0
  at xi,gamma coordinates =  -0.780000000000000        1.00000000000001     
 Distance from source:    313316.3      m
 
 
 Station #            5     AA      S0005                           
             original x:    1660.000    
             original z:    480000.0    
 Closest estimate found:   2.2737368E-13  m away
  in element         1561
  in rank            0
  at xi,gamma coordinates =  -0.723333333333333       0.999999999999999     
 Distance from source:    313074.9      m
 
 
 Station #            6     AA      S0006                           
             original x:    2000.000    
             original z:    480000.0    
 Closest estimate found:   1.1641554E-10  m away
  in element         1561
  in rank            0
  at xi,gamma coordinates =  -0.666666666666667       0.999999999999990     
 Distance from source:    312833.7      m
 
 
 Station #            7     AA      S0007                           
             original x:    2340.000    
             original z:    480000.0    
 Closest estimate found:   4.5474735E-13  m away
  in element         1561
  in rank            0
  at xi,gamma coordinates =  -0.610000000000000       0.999999999999991     
 Distance from source:    312592.7      m
 
 
 Station #            8     AA      S0008                           
             original x:    2680.000    
             original z:    480000.0    
 Closest estimate found:   0.0000000E+00  m away
  in element         1561
  in rank            0
  at xi,gamma coordinates =  -0.553333333333333       0.999999999999992     
 Distance from source:    312351.8      m
 
 
 Station #            9     AA      S0009                           
             original x:    3020.000    
             original z:    480000.0    
 Closest estimate found:   5.8209437E-11  m away
  in element         1561
  in rank            0
  at xi,gamma coordinates =  -0.496666666666667        1.00000000000000     
 Distance from source:    312111.2      m
 
 
 Station #           10     AA      S0010                           
             original x:    3360.000    
             original z:    480000.0    
 Closest estimate found:   0.0000000E+00  m away
  in element         1561
  in rank            0
  at xi,gamma coordinates =  -0.440000000000000        1.00000000000000     
 Distance from source:    311870.7      m
 
 
 Station #           11     AA      S0011                           
             original x:    3700.000    
             original z:    480000.0    
 Closest estimate found:   1.1641621E-10  m away
  in element         1561
  in rank            0
  at xi,gamma coordinates =  -0.383333333333333       0.999999999999994     
 Distance from source:    311630.4      m
 
 
 Station #           12     AA      S0012                           
             original x:    2500.000    
             original z:    2500.000    
 Closest estimate found:   4.5474735E-13  m away
  in element            1
  in rank            0
  at xi,gamma coordinates =  -0.583333333333333      -0.583333333333333     
 Distance from source:    339135.2      m
 
 
 Station #           13     AA      S0013                           
             original x:    2500.000    
             original z:    2250.000    
 Closest estimate found:   0.0000000E+00  m away
  in element            1
  in rank            0
  at xi,gamma coordinates =  -0.583333333333333      -0.625000000000000     
 Distance from source:    339324.7      m
 
 
 Station #           14     AA      S0014                           
             original x:    2500.000    
             original z:    2000.000    
 Closest estimate found:   5.0842300E-13  m away
  in element            1
  in rank            0
  at xi,gamma coordinates =  -0.583333333333333      -0.666666666666667     
 Distance from source:    339514.2      m
 
 
 Station #           15     AA      S0015                           
             original x:    2500.000    
             original z:    1750.000    
 Closest estimate found:   5.0842300E-13  m away
  in element            1
  in rank            0
  at xi,gamma coordinates =  -0.583333333333333      -0.708333333333333     
 Distance from source:    339703.8      m
 
 
 Station #           16     AA      S0016                           
             original x:    2500.000    
             original z:    1500.000    
 Closest estimate found:   2.2737368E-13  m away
  in element            1
  in rank            0
  at xi,gamma coordinates =  -0.583333333333333      -0.750000000000000     
 Distance from source:    339893.5      m
 
 
 Station #           17     AA      S0017                           
             original x:    2500.000    
             original z:    1250.000    
 Closest estimate found:   5.0842300E-13  m away
  in element            1
  in rank            0
  at xi,gamma coordinates =  -0.583333333333333      -0.791666666666667     
 Distance from source:    340083.2      m
 
 
 Station #           18     AA      S0018                           
             original x:    2500.000    
             original z:    1000.000    
 Closest estimate found:   4.5474735E-13  m away
  in element            1
  in rank            0
  at xi,gamma coordinates =  -0.583333333333333      -0.833333333333333     
 Distance from source:    340273.1      m
 
 
 Station #           19     AA      S0019                           
             original x:    2500.000    
             original z:    750.0000    
 Closest estimate found:   4.5474735E-13  m away
  in element            1
  in rank            0
  at xi,gamma coordinates =  -0.583333333333333      -0.875000000000000     
 Distance from source:    340463.0      m
 
 
 Station #           20     AA      S0020                           
             original x:    2500.000    
             original z:    500.0000    
 Closest estimate found:   6.0425384E-13  m away
  in element            1
  in rank            0
  at xi,gamma coordinates =  -0.583333333333333      -0.916666666666667     
 Distance from source:    340653.0      m
 
 
 Station #           21     AA      S0021                           
             original x:    2500.000    
             original z:    250.0000    
 Closest estimate found:   2.2737368E-13  m away
  in element            1
  in rank            0
  at xi,gamma coordinates =  -0.583333333333333      -0.958333333333333     
 Distance from source:    340843.0      m
 
 
 Station #           22     AA      S0022                           
             original x:    2500.000    
             original z:   0.0000000E+00
 Closest estimate found:   4.5474735E-13  m away
  in element            1
  in rank            0
  at xi,gamma coordinates =  -0.583333333333333       -1.00000000000000     
 Distance from source:    341033.2      m
 
 
 end of receiver detection
 
 found a total of           22  receivers, this is okay
 
 
 preparing timerun...
 
 
 Preparing array allocations
   arrays for elastic domains
   wavefield initialization
   done initialization
 
 Attenuation:
   viscoelastic  attenuation: F (shear & bulk attenuation in elastic domains)
   viscoacoustic attenuation: F (bulk attenuation in acoustic domains)
 
 Preparing mass matrices
   initializing mass matrices
   inverting mass matrices
 
 Preparing image coloring
 
 Checking mesh and stability
 
 ********
 Model: P (or PI) velocity min,max =    5800.00000000000     
   5800.00000000000     
 Model: S velocity min,max         =    3500.00000000000     
   3500.00000000000     
 Model: density min,max            =    2600.00000000000     
   2600.00000000000     
 ********
 
 
 *********************************************
 *** Verification of simulation parameters ***
 *********************************************
 
 *** Max grid size =    12000.0000000000     
 *** Min grid size =    12000.0000000000     
 *** Max/min ratio =    1.00000000000000     
 
 *** Minimum GLL point distance  =    2072.07797575214     
 *** Average GLL point distance  =    3000.00000000000     
 
 *** Minimum period resolved     =    4.28571428571429     
 *** Maximum frequency resolved  =   0.233333333333333      Hz
 
 *** Maximum suggested time step                 =   0.178627411702770     
 *** Maximum suggested (Ricker) source frequency =   9.333333333333334E-002
 
 *** for DT :   5.9999999E-02
 *** Max CFL stability condition of the time scheme based on P wave velocity (mu
 st be below about 0.50 or so) =   0.167947343822944     
 
 ----
 Number of points per wavelength:
 ----
   Source            1
   maximum dominant source frequency =   0.210000000000000      Hz
 
   Nb pts / lambdaP_fmax min =    9.206349    
   Nb pts / lambdaP_fmax max =    9.206349    
 
   Nb pts / lambdaS_fmax min =    5.555555    
   Nb pts / lambdaS_fmax max =    5.555555    
 
 -----------------------------------------
 
 histogram of min number of points per S wavelength in solid regions:
 
 there are         1600  elements out of         1600  in solid regions
   (i.e.,    100.0000     % of the total)
 
 (too small = poor resolution of calculations -
  too big = wasting memory and CPU time)
 (threshold value is around 4.5 points per S wavelength
  in elastic regions and 5.5 per P wavelength in fluid regions):
 
   5.500000      -    5.505556               0    0.0000000E+00  %
   5.505556      -    5.511111               0    0.0000000E+00  %
   5.511111      -    5.516667               0    0.0000000E+00  %
   5.516667      -    5.522222               0    0.0000000E+00  %
   5.522222      -    5.527778               0    0.0000000E+00  %
   5.527778      -    5.533333               0    0.0000000E+00  %
   5.533333      -    5.538889               0    0.0000000E+00  %
   5.538889      -    5.544445               0    0.0000000E+00  %
   5.544445      -    5.550000               0    0.0000000E+00  %
   5.550000      -    5.555555            1600     100.0000      %
   5.555555      -    5.561111               0    0.0000000E+00  %
   5.561111      -    5.566667               0    0.0000000E+00  %
   5.566667      -    5.572222               0    0.0000000E+00  %
   5.572222      -    5.577778               0    0.0000000E+00  %
   5.577778      -    5.583333               0    0.0000000E+00  %
   5.583333      -    5.588889               0    0.0000000E+00  %
   5.588889      -    5.594444               0    0.0000000E+00  %
   5.594444      -    5.600000               0    0.0000000E+00  %
   5.600000      -    5.605556               0    0.0000000E+00  %
   5.605556      -    5.611111               0    0.0000000E+00  %
 
 total percentage =    100.000000000000       %
 
 
 total number of elements in fluid and solid regions =         1600
 
 
 Preparing source time function
   time stepping scheme:   Newmark
   time stepping stages:            1
   time step size      :   5.9999999E-02
 
   number of time steps:         4800
   number of sources   :            1
 
   saving the source time function in a text file...
 
 
 Preparing image coloring
   allocating color image arrays
   locating all the pixels of color images
   total number of image pixels =       579882
   done locating all the pixels of color images
   coloring image background based on vp
 
 done, preparation successful
 

 =========================================
 =  T i m e  e v o l u t i o n  l o o p  =
 =========================================

 
 Starting time iteration loop in undoing attenuation...
 
 
 ******************************************************************
Time step number       5   t =    0.2400 s out of    4800
 ******************************************************************
 We have done   8.3350696E-02 % of the total
 Max norm of vector field in solid (elastic) =   5.2376159E-08
 Elapsed time in seconds =   6.999969482421875E-003
 Elapsed time in hh:mm:ss =      0 h 00 m 00 s
 Mean elapsed time per time step in seconds =   1.399993896484375E-003
 Time steps remaining =         4795
 Estimated remaining time in seconds =    6.71297073364258     
 Estimated remaining time in hh:mm:ss =      0 h 00 m 06 s
 Estimated total run time in seconds =    6.71997070312500     
 Estimated total run time in hh:mm:ss =      0 h 00 m 06 s
 The run will finish approximately on: Sun Nov 08, 2020 17:33
 
 Creating color image of size          763  x          800  for time step 
           5
 drawing scalar image of the forward wavefield displacement...
 Color image maximum amplitude =   8.978566512496400E-008
 Color image created
 
 
 ******************************************************************
Time step number     100   t =    5.9400 s out of    4800
 ******************************************************************
 We have done    2.062930     % of the total
 Max norm of vector field in solid (elastic) =   2.5900756E-03
 Elapsed time in seconds =   0.190000057220459     
 Elapsed time in hh:mm:ss =      0 h 00 m 00 s
 Mean elapsed time per time step in seconds =   1.900000572204590E-003
 Time steps remaining =         4700
 Estimated remaining time in seconds =    8.93000268936157     
 Estimated remaining time in hh:mm:ss =      0 h 00 m 08 s
 Estimated total run time in seconds =    9.12000274658203     
 Estimated total run time in hh:mm:ss =      0 h 00 m 09 s
 The run will finish approximately on: Sun Nov 08, 2020 17:33
 
 Creating color image of size          763  x          800  for time step 
         100
 drawing scalar image of the forward wavefield displacement...
 Color image maximum amplitude =   2.758854534476995E-003
 Color image created
 
 
 ******************************************************************
Time step number     200   t =   11.9400 s out of    4800
 ******************************************************************
 We have done    4.146697     % of the total
 Max norm of vector field in solid (elastic) =   4.1472729E-02
 Elapsed time in seconds =   0.381000041961670     
 Elapsed time in hh:mm:ss =      0 h 00 m 00 s
 Mean elapsed time per time step in seconds =   1.905000209808350E-003
 Time steps remaining =         4600
 Estimated remaining time in seconds =    8.76300096511841     
 Estimated remaining time in hh:mm:ss =      0 h 00 m 08 s
 Estimated total run time in seconds =    9.14400100708008     
 Estimated total run time in hh:mm:ss =      0 h 00 m 09 s
 The run will finish approximately on: Sun Nov 08, 2020 17:33
 
 Creating color image of size          763  x          800  for time step 
         200
 drawing scalar image of the forward wavefield displacement...
 Color image maximum amplitude =   4.010223597288132E-002
 Color image created
 
 
 ******************************************************************
Time step number     300   t =   17.9400 s out of    4800
 ******************************************************************
 We have done    6.230464     % of the total
 Max norm of vector field in solid (elastic) =   5.5690452E-02
 Elapsed time in seconds =   0.573000192642212     
 Elapsed time in hh:mm:ss =      0 h 00 m 00 s
 Mean elapsed time per time step in seconds =   1.910000642140706E-003
 Time steps remaining =         4500
 Estimated remaining time in seconds =    8.59500288963318     
 Estimated remaining time in hh:mm:ss =      0 h 00 m 08 s
 Estimated total run time in seconds =    9.16800308227539     
 Estimated total run time in hh:mm:ss =      0 h 00 m 09 s
 The run will finish approximately on: Sun Nov 08, 2020 17:33
 
 Creating color image of size          763  x          800  for time step 
         300
 drawing scalar image of the forward wavefield displacement...
 Color image maximum amplitude =   5.482546240091324E-002
 Color image created
 
 
 ******************************************************************
Time step number     400   t =   23.9400 s out of    4800
 ******************************************************************
 We have done    8.314232     % of the total
 Max norm of vector field in solid (elastic) =   2.9023688E-02
 Elapsed time in seconds =   0.765000104904175     
 Elapsed time in hh:mm:ss =      0 h 00 m 00 s
 Mean elapsed time per time step in seconds =   1.912500262260437E-003
 Time steps remaining =         4400
 Estimated remaining time in seconds =    8.41500115394592     
 Estimated remaining time in hh:mm:ss =      0 h 00 m 08 s
 Estimated total run time in seconds =    9.18000125885010     
 Estimated total run time in hh:mm:ss =      0 h 00 m 09 s
 The run will finish approximately on: Sun Nov 08, 2020 17:33
 
 Creating color image of size          763  x          800  for time step 
         400
 drawing scalar image of the forward wavefield displacement...
 Color image maximum amplitude =   2.892118878662586E-002
 Color image created
 
 
 ******************************************************************
Time step number     500   t =   29.9400 s out of    4800
 ******************************************************************
 We have done    10.39800     % of the total
 Max norm of vector field in solid (elastic) =   2.2120144E-02
 Elapsed time in seconds =   0.958000183105469     
 Elapsed time in hh:mm:ss =      0 h 00 m 00 s
 Mean elapsed time per time step in seconds =   1.916000366210937E-003
 Time steps remaining =         4300
 Estimated remaining time in seconds =    8.23880157470703     
 Estimated remaining time in hh:mm:ss =      0 h 00 m 08 s
 Estimated total run time in seconds =    9.19680175781250     
 Estimated total run time in hh:mm:ss =      0 h 00 m 09 s
 The run will finish approximately on: Sun Nov 08, 2020 17:33
 
 Creating color image of size          763  x          800  for time step 
         500
 drawing scalar image of the forward wavefield displacement...
 Color image maximum amplitude =   2.205624058842659E-002
 Color image created
 
 
 ******************************************************************
Time step number     600   t =   35.9400 s out of    4800
 ******************************************************************
 We have done    12.48177     % of the total
 Max norm of vector field in solid (elastic) =   1.8560505E-02
 Elapsed time in seconds =    1.15400004386902     
 Elapsed time in hh:mm:ss =      0 h 00 m 01 s
 Mean elapsed time per time step in seconds =   1.923333406448364E-003
 Time steps remaining =         4200
 Estimated remaining time in seconds =    8.07800030708313     
 Estimated remaining time in hh:mm:ss =      0 h 00 m 08 s
 Estimated total run time in seconds =    9.23200035095215     
 Estimated total run time in hh:mm:ss =      0 h 00 m 09 s
 The run will finish approximately on: Sun Nov 08, 2020 17:33
 
 Creating color image of size          763  x          800  for time step 
         600
 drawing scalar image of the forward wavefield displacement...
 Color image maximum amplitude =   1.853620074689388E-002
 Color image created
 
 
 ******************************************************************
Time step number     700   t =   41.9400 s out of    4800
 ******************************************************************
 We have done    14.56553     % of the total
 Max norm of vector field in solid (elastic) =   1.6300719E-02
 Elapsed time in seconds =    1.35199999809265     
 Elapsed time in hh:mm:ss =      0 h 00 m 01 s
 Mean elapsed time per time step in seconds =   1.931428568703788E-003
 Time steps remaining =         4100
 Estimated remaining time in seconds =    7.91885713168553     
 Estimated remaining time in hh:mm:ss =      0 h 00 m 07 s
 Estimated total run time in seconds =    9.27085712977818     
 Estimated total run time in hh:mm:ss =      0 h 00 m 09 s
 The run will finish approximately on: Sun Nov 08, 2020 17:33
 
 Creating color image of size          763  x          800  for time step 
         700
 drawing scalar image of the forward wavefield displacement...
 Color image maximum amplitude =   1.628113724291325E-002
 Color image created
 
 
 ******************************************************************
Time step number     800   t =   47.9400 s out of    4800
 ******************************************************************
 We have done    16.64930     % of the total
 Max norm of vector field in solid (elastic) =   1.4710797E-02
 Elapsed time in seconds =    1.55200004577637     
 Elapsed time in hh:mm:ss =      0 h 00 m 01 s
 Mean elapsed time per time step in seconds =   1.940000057220459E-003
 Time steps remaining =         4000
 Estimated remaining time in seconds =    7.76000022888184     
 Estimated remaining time in hh:mm:ss =      0 h 00 m 07 s
 Estimated total run time in seconds =    9.31200027465820     
 Estimated total run time in hh:mm:ss =      0 h 00 m 09 s
 The run will finish approximately on: Sun Nov 08, 2020 17:33
 
 Creating color image of size          763  x          800  for time step 
         800
 drawing scalar image of the forward wavefield displacement...
 Color image maximum amplitude =   1.469510607421398E-002
 Color image created
 
 
 ******************************************************************
Time step number     900   t =   53.9400 s out of    4800
 ******************************************************************
 We have done    18.73307     % of the total
 Max norm of vector field in solid (elastic) =   1.3504782E-02
 Elapsed time in seconds =    1.75600004196167     
 Elapsed time in hh:mm:ss =      0 h 00 m 01 s
 Mean elapsed time per time step in seconds =   1.951111157735189E-003
 Time steps remaining =         3900
 Estimated remaining time in seconds =    7.60933351516724     
 Estimated remaining time in hh:mm:ss =      0 h 00 m 07 s
 Estimated total run time in seconds =    9.36533355712891     
 Estimated total run time in hh:mm:ss =      0 h 00 m 09 s
 The run will finish approximately on: Sun Nov 08, 2020 17:33
 
 Creating color image of size          763  x          800  for time step 
         900
 drawing scalar image of the forward wavefield displacement...
 Color image maximum amplitude =   1.349860429763794E-002
 Color image created
 
 
 ******************************************************************
Time step number    1000   t =   59.9400 s out of    4800
 ******************************************************************
 We have done    20.81684     % of the total
 Max norm of vector field in solid (elastic) =   1.2562104E-02
 Elapsed time in seconds =    1.96200013160706     
 Elapsed time in hh:mm:ss =      0 h 00 m 01 s
 Mean elapsed time per time step in seconds =   1.962000131607056E-003
 Time steps remaining =         3800
 Estimated remaining time in seconds =    7.45560050010681     
 Estimated remaining time in hh:mm:ss =      0 h 00 m 07 s
 Estimated total run time in seconds =    9.41760063171387     
 Estimated total run time in hh:mm:ss =      0 h 00 m 09 s
 The run will finish approximately on: Sun Nov 08, 2020 17:33
 
 
 Total number of time steps done:         1000
 Writing the seismograms by main proc alone took   3.2091141E-04  seconds
 
 Creating color image of size          763  x          800  for time step 
        1000
 drawing scalar image of the forward wavefield displacement...
 Color image maximum amplitude =   1.255336124449968E-002
 Color image created
 
 
 ******************************************************************
Time step number    1100   t =   65.9400 s out of    4800
 ******************************************************************
 We have done    22.90060     % of the total
 Max norm of vector field in solid (elastic) =   1.1783359E-02
 Elapsed time in seconds =    2.17000007629395     
 Elapsed time in hh:mm:ss =      0 h 00 m 02 s
 Mean elapsed time per time step in seconds =   1.972727342085405E-003
 Time steps remaining =         3700
 Estimated remaining time in seconds =    7.29909116571600     
 Estimated remaining time in hh:mm:ss =      0 h 00 m 07 s
 Estimated total run time in seconds =    9.46909124200994     
 Estimated total run time in hh:mm:ss =      0 h 00 m 09 s
 The run will finish approximately on: Sun Nov 08, 2020 17:33
 
 Creating color image of size          763  x          800  for time step 
        1100
 drawing scalar image of the forward wavefield displacement...
 Color image maximum amplitude =   1.177748944610357E-002
 Color image created
 
 
 ******************************************************************
Time step number    1200   t =   71.9400 s out of    4800
 ******************************************************************
 We have done    24.98437     % of the total
 Max norm of vector field in solid (elastic) =   1.1138027E-02
 Elapsed time in seconds =    2.38000011444092     
 Elapsed time in hh:mm:ss =      0 h 00 m 02 s
 Mean elapsed time per time step in seconds =   1.983333428700765E-003
 Time steps remaining =         3600
 Estimated remaining time in seconds =    7.14000034332275     
 Estimated remaining time in hh:mm:ss =      0 h 00 m 07 s
 Estimated total run time in seconds =    9.52000045776367     
 Estimated total run time in hh:mm:ss =      0 h 00 m 09 s
 The run will finish approximately on: Sun Nov 08, 2020 17:33
 
 Creating color image of size          763  x          800  for time step 
        1200
 drawing scalar image of the forward wavefield displacement...
 Color image maximum amplitude =   1.113251596689224E-002
 Color image created
 
 
 ******************************************************************
Time step number    1300   t =   77.9400 s out of    4800
 ******************************************************************
 We have done    27.06814     % of the total
 Max norm of vector field in solid (elastic) =   1.0638035E-02
 Elapsed time in seconds =    2.59200000762939     
 Elapsed time in hh:mm:ss =      0 h 00 m 02 s
 Mean elapsed time per time step in seconds =   1.993846159714919E-003
 Time steps remaining =         3500
 Estimated remaining time in seconds =    6.97846155900222     
 Estimated remaining time in hh:mm:ss =      0 h 00 m 06 s
 Estimated total run time in seconds =    9.57046156663161     
 Estimated total run time in hh:mm:ss =      0 h 00 m 09 s
 The run will finish approximately on: Sun Nov 08, 2020 17:33
 
 Creating color image of size          763  x          800  for time step 
        1300
 drawing scalar image of the forward wavefield displacement...
 Color image maximum amplitude =   1.063000224530697E-002
 Color image created
 
 
 ******************************************************************
Time step number    1400   t =   83.9400 s out of    4800
 ******************************************************************
 We have done    29.15191     % of the total
 Max norm of vector field in solid (elastic) =   1.0370419E-02
 Elapsed time in seconds =    2.82899999618530     
 Elapsed time in hh:mm:ss =      0 h 00 m 02 s
 Mean elapsed time per time step in seconds =   2.020714282989502E-003
 Time steps remaining =         3400
 Estimated remaining time in seconds =    6.87042856216431     
 Estimated remaining time in hh:mm:ss =      0 h 00 m 06 s
 Estimated total run time in seconds =    9.69942855834961     
 Estimated total run time in hh:mm:ss =      0 h 00 m 09 s
 The run will finish approximately on: Sun Nov 08, 2020 17:33
 
 Creating color image of size          763  x          800  for time step 
        1400
 drawing scalar image of the forward wavefield displacement...
 Color image maximum amplitude =   1.036907453089952E-002
 Color image created
 
 
 ******************************************************************
Time step number    1500   t =   89.9400 s out of    4800
 ******************************************************************
 We have done    31.23567     % of the total
 Max norm of vector field in solid (elastic) =   1.0107722E-02
 Elapsed time in seconds =    3.06000018119812     
 Elapsed time in hh:mm:ss =      0 h 00 m 03 s
 Mean elapsed time per time step in seconds =   2.040000120798747E-003
 Time steps remaining =         3300
 Estimated remaining time in seconds =    6.73200039863586     
 Estimated remaining time in hh:mm:ss =      0 h 00 m 06 s
 Estimated total run time in seconds =    9.79200057983399     
 Estimated total run time in hh:mm:ss =      0 h 00 m 09 s
 The run will finish approximately on: Sun Nov 08, 2020 17:33
 
 Creating color image of size          763  x          800  for time step 
        1500
 drawing scalar image of the forward wavefield displacement...
 Color image maximum amplitude =   1.012757606804371E-002
 Color image created
 
 
 ******************************************************************
Time step number    1600   t =   95.9400 s out of    4800
 ******************************************************************
 We have done    33.31944     % of the total
 Max norm of vector field in solid (elastic) =   9.9119274E-03
 Elapsed time in seconds =    3.28800010681152     
 Elapsed time in hh:mm:ss =      0 h 00 m 03 s
 Mean elapsed time per time step in seconds =   2.055000066757202E-003
 Time steps remaining =         3200
 Estimated remaining time in seconds =    6.57600021362305     
 Estimated remaining time in hh:mm:ss =      0 h 00 m 06 s
 Estimated total run time in seconds =    9.86400032043457     
 Estimated total run time in hh:mm:ss =      0 h 00 m 09 s
 The run will finish approximately on: Sun Nov 08, 2020 17:33
 
 Creating color image of size          763  x          800  for time step 
        1600
 drawing scalar image of the forward wavefield displacement...
 Color image maximum amplitude =   9.915147908031940E-003
 Color image created
 
 
 ******************************************************************
Time step number    1700   t =  101.9400 s out of    4800
 ******************************************************************
 We have done    35.40321     % of the total
 Max norm of vector field in solid (elastic) =   9.7243050E-03
 Elapsed time in seconds =    3.49600005149841     
 Elapsed time in hh:mm:ss =      0 h 00 m 03 s
 Mean elapsed time per time step in seconds =   2.056470618528478E-003
 Time steps remaining =         3100
 Estimated remaining time in seconds =    6.37505891743828     
 Estimated remaining time in hh:mm:ss =      0 h 00 m 06 s
 Estimated total run time in seconds =    9.87105896893670     
 Estimated total run time in hh:mm:ss =      0 h 00 m 09 s
 The run will finish approximately on: Sun Nov 08, 2020 17:33
 
 Creating color image of size          763  x          800  for time step 
        1700
 drawing scalar image of the forward wavefield displacement...
 Color image maximum amplitude =   9.717673994600773E-003
 Color image created
 
 
 ******************************************************************
Time step number    1800   t =  107.9400 s out of    4800
 ******************************************************************
 We have done    37.48698     % of the total
 Max norm of vector field in solid (elastic) =   9.9937264E-03
 Elapsed time in seconds =    3.69600009918213     
 Elapsed time in hh:mm:ss =      0 h 00 m 03 s
 Mean elapsed time per time step in seconds =   2.053333388434516E-003
 Time steps remaining =         3000
 Estimated remaining time in seconds =    6.16000016530355     
 Estimated remaining time in hh:mm:ss =      0 h 00 m 06 s
 Estimated total run time in seconds =    9.85600026448568     
 Estimated total run time in hh:mm:ss =      0 h 00 m 09 s
 The run will finish approximately on: Sun Nov 08, 2020 17:33
 
 Creating color image of size          763  x          800  for time step 
        1800
 drawing scalar image of the forward wavefield displacement...
 Color image maximum amplitude =   9.971709921956062E-003
 Color image created
 
 
 ******************************************************************
Time step number    1900   t =  113.9400 s out of    4800
 ******************************************************************
 We have done    39.57074     % of the total
 Max norm of vector field in solid (elastic) =   9.6244523E-03
 Elapsed time in seconds =    3.89400005340576     
 Elapsed time in hh:mm:ss =      0 h 00 m 03 s
 Mean elapsed time per time step in seconds =   2.049473712318822E-003
 Time steps remaining =         2900
 Estimated remaining time in seconds =    5.94347376572458     
 Estimated remaining time in hh:mm:ss =      0 h 00 m 05 s
 Estimated total run time in seconds =    9.83747381913035     
 Estimated total run time in hh:mm:ss =      0 h 00 m 09 s
 The run will finish approximately on: Sun Nov 08, 2020 17:33
 
 Creating color image of size          763  x          800  for time step 
        1900
 drawing scalar image of the forward wavefield displacement...
 Color image maximum amplitude =   9.653689339756966E-003
 Color image created
 
 
 ******************************************************************
Time step number    2000   t =  119.9400 s out of    4800
 ******************************************************************
 We have done    41.65451     % of the total
 Max norm of vector field in solid (elastic) =   5.8761374E-03
 Elapsed time in seconds =    4.09300017356873     
 Elapsed time in hh:mm:ss =      0 h 00 m 04 s
 Mean elapsed time per time step in seconds =   2.046500086784363E-003
 Time steps remaining =         2800
 Estimated remaining time in seconds =    5.73020024299622     
 Estimated remaining time in hh:mm:ss =      0 h 00 m 05 s
 Estimated total run time in seconds =    9.82320041656494     
 Estimated total run time in hh:mm:ss =      0 h 00 m 09 s
 The run will finish approximately on: Sun Nov 08, 2020 17:33
 
 
 Total number of time steps done:         2000
 Writing the seismograms by main proc alone took   1.2588501E-04  seconds
 
 Creating color image of size          763  x          800  for time step 
        2000
 drawing scalar image of the forward wavefield displacement...
 Color image maximum amplitude =   5.818509496748447E-003
 Color image created
 
 
 ******************************************************************
Time step number    2100   t =  125.9400 s out of    4800
 ******************************************************************
 We have done    43.73828     % of the total
 Max norm of vector field in solid (elastic) =   1.2737201E-03
 Elapsed time in seconds =    4.29299998283386     
 Elapsed time in hh:mm:ss =      0 h 00 m 04 s
 Mean elapsed time per time step in seconds =   2.044285706111363E-003
 Time steps remaining =         2700
 Estimated remaining time in seconds =    5.51957140650068     
 Estimated remaining time in hh:mm:ss =      0 h 00 m 05 s
 Estimated total run time in seconds =    9.81257138933454     
 Estimated total run time in hh:mm:ss =      0 h 00 m 09 s
 The run will finish approximately on: Sun Nov 08, 2020 17:33
 
 Creating color image of size          763  x          800  for time step 
        2100
 drawing scalar image of the forward wavefield displacement...
 Color image maximum amplitude =   1.271763234399259E-003
 Color image created
 
 
 ******************************************************************
Time step number    2200   t =  131.9400 s out of    4800
 ******************************************************************
 We have done    45.82204     % of the total
 Max norm of vector field in solid (elastic) =   1.0537927E-03
 Elapsed time in seconds =    4.50699996948242     
 Elapsed time in hh:mm:ss =      0 h 00 m 04 s
 Mean elapsed time per time step in seconds =   2.048636349764737E-003
 Time steps remaining =         2600
 Estimated remaining time in seconds =    5.32645450938832     
 Estimated remaining time in hh:mm:ss =      0 h 00 m 05 s
 Estimated total run time in seconds =    9.83345447887074     
 Estimated total run time in hh:mm:ss =      0 h 00 m 09 s
 The run will finish approximately on: Sun Nov 08, 2020 17:33
 
 Creating color image of size          763  x          800  for time step 
        2200
 drawing scalar image of the forward wavefield displacement...
 Color image maximum amplitude =   1.047718338668346E-003
 Color image created
 
 
 ******************************************************************
Time step number    2300   t =  137.9400 s out of    4800
 ******************************************************************
 We have done    47.90582     % of the total
 Max norm of vector field in solid (elastic) =   9.1510423E-04
 Elapsed time in seconds =    4.72000002861023     
 Elapsed time in hh:mm:ss =      0 h 00 m 04 s
 Mean elapsed time per time step in seconds =   2.052173925482708E-003
 Time steps remaining =         2500
 Estimated remaining time in seconds =    5.13043481370677     
 Estimated remaining time in hh:mm:ss =      0 h 00 m 05 s
 Estimated total run time in seconds =    9.85043484231700     
 Estimated total run time in hh:mm:ss =      0 h 00 m 09 s
 The run will finish approximately on: Sun Nov 08, 2020 17:33
 
 Creating color image of size          763  x          800  for time step 
        2300
 drawing scalar image of the forward wavefield displacement...
 Color image maximum amplitude =   9.125667274929583E-004
 Color image created
 
 
 ******************************************************************
Time step number    2400   t =  143.9400 s out of    4800
 ******************************************************************
 We have done    49.98958     % of the total
 Max norm of vector field in solid (elastic) =   8.0029160E-04
 Elapsed time in seconds =    4.93700003623962     
 Elapsed time in hh:mm:ss =      0 h 00 m 04 s
 Mean elapsed time per time step in seconds =   2.057083348433177E-003
 Time steps remaining =         2400
 Estimated remaining time in seconds =    4.93700003623962     
 Estimated remaining time in hh:mm:ss =      0 h 00 m 04 s
 Estimated total run time in seconds =    9.87400007247925     
 Estimated total run time in hh:mm:ss =      0 h 00 m 09 s
 The run will finish approximately on: Sun Nov 08, 2020 17:33
 
 Creating color image of size          763  x          800  for time step 
        2400
 drawing scalar image of the forward wavefield displacement...
 Color image maximum amplitude =   7.989878067746758E-004
 Color image created
 
 
 ******************************************************************
Time step number    2500   t =  149.9400 s out of    4800
 ******************************************************************
 We have done    52.07335     % of the total
 Max norm of vector field in solid (elastic) =   7.0523995E-04
 Elapsed time in seconds =    5.15400004386902     
 Elapsed time in hh:mm:ss =      0 h 00 m 05 s
 Mean elapsed time per time step in seconds =   2.061600017547607E-003
 Time steps remaining =         2300
 Estimated remaining time in seconds =    4.74168004035950     
 Estimated remaining time in hh:mm:ss =      0 h 00 m 04 s
 Estimated total run time in seconds =    9.89568008422852     
 Estimated total run time in hh:mm:ss =      0 h 00 m 09 s
 The run will finish approximately on: Sun Nov 08, 2020 17:33
 
 Creating color image of size          763  x          800  for time step 
        2500
 drawing scalar image of the forward wavefield displacement...
 Color image maximum amplitude =   7.049102568998933E-004
 Color image created
 
 
 ******************************************************************
Time step number    2600   t =  155.9400 s out of    4800
 ******************************************************************
 We have done    54.15712     % of the total
 Max norm of vector field in solid (elastic) =   6.2572054E-04
 Elapsed time in seconds =    5.37199997901917     
 Elapsed time in hh:mm:ss =      0 h 00 m 05 s
 Mean elapsed time per time step in seconds =   2.066153838084294E-003
 Time steps remaining =         2200
 Estimated remaining time in seconds =    4.54553844378545     
 Estimated remaining time in hh:mm:ss =      0 h 00 m 04 s
 Estimated total run time in seconds =    9.91753842280461     
 Estimated total run time in hh:mm:ss =      0 h 00 m 09 s
 The run will finish approximately on: Sun Nov 08, 2020 17:33
 
 Creating color image of size          763  x          800  for time step 
        2600
 drawing scalar image of the forward wavefield displacement...
 Color image maximum amplitude =   6.238507339730859E-004
 Color image created
 
 
 ******************************************************************
Time step number    2700   t =  161.9400 s out of    4800
 ******************************************************************
 We have done    56.24088     % of the total
 Max norm of vector field in solid (elastic) =   5.5703684E-04
 Elapsed time in seconds =    5.58800005912781     
 Elapsed time in hh:mm:ss =      0 h 00 m 05 s
 Mean elapsed time per time step in seconds =   2.069629651528818E-003
 Time steps remaining =         2100
 Estimated remaining time in seconds =    4.34622226821052     
 Estimated remaining time in hh:mm:ss =      0 h 00 m 04 s
 Estimated total run time in seconds =    9.93422232733833     
 Estimated total run time in hh:mm:ss =      0 h 00 m 09 s
 The run will finish approximately on: Sun Nov 08, 2020 17:33
 
 Creating color image of size          763  x          800  for time step 
        2700
 drawing scalar image of the forward wavefield displacement...
 Color image maximum amplitude =   5.545699386857450E-004
 Color image created
 
 
 ******************************************************************
Time step number    2800   t =  167.9400 s out of    4800
 ******************************************************************
 We have done    58.32465     % of the total
 Max norm of vector field in solid (elastic) =   8.8884030E-04
 Elapsed time in seconds =    5.80299997329712     
 Elapsed time in hh:mm:ss =      0 h 00 m 05 s
 Mean elapsed time per time step in seconds =   2.072499990463257E-003
 Time steps remaining =         2000
 Estimated remaining time in seconds =    4.14499998092651     
 Estimated remaining time in hh:mm:ss =      0 h 00 m 04 s
 Estimated total run time in seconds =    9.94799995422363     
 Estimated total run time in hh:mm:ss =      0 h 00 m 09 s
 The run will finish approximately on: Sun Nov 08, 2020 17:33
 
 Creating color image of size          763  x          800  for time step 
        2800
 drawing scalar image of the forward wavefield displacement...
 Color image maximum amplitude =   8.981245919130743E-004
 Color image created
 
 
 ******************************************************************
Time step number    2900   t =  173.9400 s out of    4800
 ******************************************************************
 We have done    60.40842     % of the total
 Max norm of vector field in solid (elastic) =   4.6599691E-04
 Elapsed time in seconds =    6.01400017738342     
 Elapsed time in hh:mm:ss =      0 h 00 m 06 s
 Mean elapsed time per time step in seconds =   2.073793164614974E-003
 Time steps remaining =         1900
 Estimated remaining time in seconds =    3.94020701276845     
 Estimated remaining time in hh:mm:ss =      0 h 00 m 03 s
 Estimated total run time in seconds =    9.95420719015187     
 Estimated total run time in hh:mm:ss =      0 h 00 m 09 s
 The run will finish approximately on: Sun Nov 08, 2020 17:33
 
 Creating color image of size          763  x          800  for time step 
        2900
 drawing scalar image of the forward wavefield displacement...
 Color image maximum amplitude =   4.657090175896883E-004
 Color image created
 
 
 ******************************************************************
Time step number    3000   t =  179.9400 s out of    4800
 ******************************************************************
 We have done    62.49219     % of the total
 Max norm of vector field in solid (elastic) =   4.1290955E-04
 Elapsed time in seconds =    6.22800016403198     
 Elapsed time in hh:mm:ss =      0 h 00 m 06 s
 Mean elapsed time per time step in seconds =   2.076000054677327E-003
 Time steps remaining =         1800
 Estimated remaining time in seconds =    3.73680009841919     
 Estimated remaining time in hh:mm:ss =      0 h 00 m 03 s
 Estimated total run time in seconds =    9.96480026245117     
 Estimated total run time in hh:mm:ss =      0 h 00 m 09 s
 The run will finish approximately on: Sun Nov 08, 2020 17:33
 
 
 Total number of time steps done:         3000
 Writing the seismograms by main proc alone took   1.1587143E-04  seconds
 
 Creating color image of size          763  x          800  for time step 
        3000
 drawing scalar image of the forward wavefield displacement...
 Color image maximum amplitude =   4.126940621063113E-004
 Color image created
 
 
 ******************************************************************
Time step number    3100   t =  185.9400 s out of    4800
 ******************************************************************
 We have done    64.57595     % of the total
 Max norm of vector field in solid (elastic) =   3.8231045E-04
 Elapsed time in seconds =    6.44600009918213     
 Elapsed time in hh:mm:ss =      0 h 00 m 06 s
 Mean elapsed time per time step in seconds =   2.079354870703912E-003
 Time steps remaining =         1700
 Estimated remaining time in seconds =    3.53490328019665     
 Estimated remaining time in hh:mm:ss =      0 h 00 m 03 s
 Estimated total run time in seconds =    9.98090337937878     
 Estimated total run time in hh:mm:ss =      0 h 00 m 09 s
 The run will finish approximately on: Sun Nov 08, 2020 17:33
 
 Creating color image of size          763  x          800  for time step 
        3100
 drawing scalar image of the forward wavefield displacement...
 Color image maximum amplitude =   3.815520612988621E-004
 Color image created
 
 
 ******************************************************************
Time step number    3200   t =  191.9400 s out of    4800
 ******************************************************************
 We have done    66.65972     % of the total
 Max norm of vector field in solid (elastic) =   3.6759535E-04
 Elapsed time in seconds =    6.66499996185303     
 Elapsed time in hh:mm:ss =      0 h 00 m 06 s
 Mean elapsed time per time step in seconds =   2.082812488079071E-003
 Time steps remaining =         1600
 Estimated remaining time in seconds =    3.33249998092651     
 Estimated remaining time in hh:mm:ss =      0 h 00 m 03 s
 Estimated total run time in seconds =    9.99749994277954     
 Estimated total run time in hh:mm:ss =      0 h 00 m 09 s
 The run will finish approximately on: Sun Nov 08, 2020 17:33
 
 Creating color image of size          763  x          800  for time step 
        3200
 drawing scalar image of the forward wavefield displacement...
 Color image maximum amplitude =   3.680783847812563E-004
 Color image created
 
 
 ******************************************************************
Time step number    3300   t =  197.9400 s out of    4800
 ******************************************************************
 We have done    68.74348     % of the total
 Max norm of vector field in solid (elastic) =   3.6772501E-04
 Elapsed time in seconds =    6.88600015640259     
 Elapsed time in hh:mm:ss =      0 h 00 m 06 s
 Mean elapsed time per time step in seconds =   2.086666714061390E-003
 Time steps remaining =         1500
 Estimated remaining time in seconds =    3.13000007109209     
 Estimated remaining time in hh:mm:ss =      0 h 00 m 03 s
 Estimated total run time in seconds =    10.0160002274947     
 Estimated total run time in hh:mm:ss =      0 h 00 m 10 s
 The run will finish approximately on: Sun Nov 08, 2020 17:33
 
 Creating color image of size          763  x          800  for time step 
        3300
 drawing scalar image of the forward wavefield displacement...
 Color image maximum amplitude =   3.695328778121620E-004
 Color image created
 
 
 ******************************************************************
Time step number    3400   t =  203.9400 s out of    4800
 ******************************************************************
 We have done    70.82726     % of the total
 Max norm of vector field in solid (elastic) =   4.3634776E-04
 Elapsed time in seconds =    7.10500001907349     
 Elapsed time in hh:mm:ss =      0 h 00 m 07 s
 Mean elapsed time per time step in seconds =   2.089705887962790E-003
 Time steps remaining =         1400
 Estimated remaining time in seconds =    2.92558824314791     
 Estimated remaining time in hh:mm:ss =      0 h 00 m 02 s
 Estimated total run time in seconds =    10.0305882622214     
 Estimated total run time in hh:mm:ss =      0 h 00 m 10 s
 The run will finish approximately on: Sun Nov 08, 2020 17:33
 
 Creating color image of size          763  x          800  for time step 
        3400
 drawing scalar image of the forward wavefield displacement...
 Color image maximum amplitude =   4.405215731821954E-004
 Color image created
 
 
 ******************************************************************
Time step number    3500   t =  209.9400 s out of    4800
 ******************************************************************
 We have done    72.91103     % of the total
 Max norm of vector field in solid (elastic) =   6.7702198E-04
 Elapsed time in seconds =    7.32400012016296     
 Elapsed time in hh:mm:ss =      0 h 00 m 07 s
 Mean elapsed time per time step in seconds =   2.092571462903704E-003
 Time steps remaining =         1300
 Estimated remaining time in seconds =    2.72034290177482     
 Estimated remaining time in hh:mm:ss =      0 h 00 m 02 s
 Estimated total run time in seconds =    10.0443430219378     
 Estimated total run time in hh:mm:ss =      0 h 00 m 10 s
 The run will finish approximately on: Sun Nov 08, 2020 17:33
 
 Creating color image of size          763  x          800  for time step 
        3500
 drawing scalar image of the forward wavefield displacement...
 Color image maximum amplitude =   6.704333936795592E-004
 Color image created
 
 
 ******************************************************************
Time step number    3600   t =  215.9400 s out of    4800
 ******************************************************************
 We have done    74.99479     % of the total
 Max norm of vector field in solid (elastic) =   3.7721053E-04
 Elapsed time in seconds =    7.53800010681152     
 Elapsed time in hh:mm:ss =      0 h 00 m 07 s
 Mean elapsed time per time step in seconds =   2.093888918558756E-003
 Time steps remaining =         1200
 Estimated remaining time in seconds =    2.51266670227051     
 Estimated remaining time in hh:mm:ss =      0 h 00 m 02 s
 Estimated total run time in seconds =    10.0506668090820     
 Estimated total run time in hh:mm:ss =      0 h 00 m 10 s
 The run will finish approximately on: Sun Nov 08, 2020 17:33
 
 Creating color image of size          763  x          800  for time step 
        3600
 drawing scalar image of the forward wavefield displacement...
 Color image maximum amplitude =   3.789841139223427E-004
 Color image created
 
 
 ******************************************************************
Time step number    3700   t =  221.9400 s out of    4800
 ******************************************************************
 We have done    77.07856     % of the total
 Max norm of vector field in solid (elastic) =   4.5307318E-04
 Elapsed time in seconds =    7.75500011444092     
 Elapsed time in hh:mm:ss =      0 h 00 m 07 s
 Mean elapsed time per time step in seconds =   2.095945976875924E-003
 Time steps remaining =         1100
 Estimated remaining time in seconds =    2.30554057456352     
 Estimated remaining time in hh:mm:ss =      0 h 00 m 02 s
 Estimated total run time in seconds =    10.0605406890044     
 Estimated total run time in hh:mm:ss =      0 h 00 m 10 s
 The run will finish approximately on: Sun Nov 08, 2020 17:33
 
 Creating color image of size          763  x          800  for time step 
        3700
 drawing scalar image of the forward wavefield displacement...
 Color image maximum amplitude =   4.497495829127729E-004
 Color image created
 
 
 ******************************************************************
Time step number    3800   t =  227.9400 s out of    4800
 ******************************************************************
 We have done    79.16232     % of the total
 Max norm of vector field in solid (elastic) =   3.3677692E-04
 Elapsed time in seconds =    7.97200012207031     
 Elapsed time in hh:mm:ss =      0 h 00 m 07 s
 Mean elapsed time per time step in seconds =   2.097894768965872E-003
 Time steps remaining =         1000
 Estimated remaining time in seconds =    2.09789476896587     
 Estimated remaining time in hh:mm:ss =      0 h 00 m 02 s
 Estimated total run time in seconds =    10.0698948910362     
 Estimated total run time in hh:mm:ss =      0 h 00 m 10 s
 The run will finish approximately on: Sun Nov 08, 2020 17:33
 
 Creating color image of size          763  x          800  for time step 
        3800
 drawing scalar image of the forward wavefield displacement...
 Color image maximum amplitude =   3.369997139088809E-004
 Color image created
 
 
 ******************************************************************
Time step number    3900   t =  233.9400 s out of    4800
 ******************************************************************
 We have done    81.24609     % of the total
 Max norm of vector field in solid (elastic) =   3.2878763E-04
 Elapsed time in seconds =    8.19200015068054     
 Elapsed time in hh:mm:ss =      0 h 00 m 08 s
 Mean elapsed time per time step in seconds =   2.100512859148857E-003
 Time steps remaining =          900
 Estimated remaining time in seconds =    1.89046157323397     
 Estimated remaining time in hh:mm:ss =      0 h 00 m 01 s
 Estimated total run time in seconds =    10.0824617239145     
 Estimated total run time in hh:mm:ss =      0 h 00 m 10 s
 The run will finish approximately on: Sun Nov 08, 2020 17:33
 
 Creating color image of size          763  x          800  for time step 
        3900
 drawing scalar image of the forward wavefield displacement...
 Color image maximum amplitude =   3.286796563770622E-004
 Color image created
 
 
 ******************************************************************
Time step number    4000   t =  239.9400 s out of    4800
 ******************************************************************
 We have done    83.32986     % of the total
 Max norm of vector field in solid (elastic) =   3.2041685E-04
 Elapsed time in seconds =    8.41100001335144     
 Elapsed time in hh:mm:ss =      0 h 00 m 08 s
 Mean elapsed time per time step in seconds =   2.102750003337860E-003
 Time steps remaining =          800
 Estimated remaining time in seconds =    1.68220000267029     
 Estimated remaining time in hh:mm:ss =      0 h 00 m 01 s
 Estimated total run time in seconds =    10.0932000160217     
 Estimated total run time in hh:mm:ss =      0 h 00 m 10 s
 The run will finish approximately on: Sun Nov 08, 2020 17:33
 
 
 Total number of time steps done:         4000
 Writing the seismograms by main proc alone took   1.1920929E-04  seconds
 
 Creating color image of size          763  x          800  for time step 
        4000
 drawing scalar image of the forward wavefield displacement...
 Color image maximum amplitude =   3.200453065801412E-004
 Color image created
 
 
 ******************************************************************
Time step number    4100   t =  245.9400 s out of    4800
 ******************************************************************
 We have done    85.41363     % of the total
 Max norm of vector field in solid (elastic) =   3.0467651E-04
 Elapsed time in seconds =    8.62800002098083     
 Elapsed time in hh:mm:ss =      0 h 00 m 08 s
 Mean elapsed time per time step in seconds =   2.104390249019716E-003
 Time steps remaining =          700
 Estimated remaining time in seconds =    1.47307317431380     
 Estimated remaining time in hh:mm:ss =      0 h 00 m 01 s
 Estimated total run time in seconds =    10.1010731952946     
 Estimated total run time in hh:mm:ss =      0 h 00 m 10 s
 The run will finish approximately on: Sun Nov 08, 2020 17:33
 
 Creating color image of size          763  x          800  for time step 
        4100
 drawing scalar image of the forward wavefield displacement...
 Color image maximum amplitude =   3.068785299547017E-004
 Color image created
 
 
 ******************************************************************
Time step number    4200   t =  251.9400 s out of    4800
 ******************************************************************
 We have done    87.49740     % of the total
 Max norm of vector field in solid (elastic) =   3.0258839E-04
 Elapsed time in seconds =    8.84300017356873     
 Elapsed time in hh:mm:ss =      0 h 00 m 08 s
 Mean elapsed time per time step in seconds =   2.105476231802077E-003
 Time steps remaining =          600
 Estimated remaining time in seconds =    1.26328573908125     
 Estimated remaining time in hh:mm:ss =      0 h 00 m 01 s
 Estimated total run time in seconds =    10.1062859126500     
 Estimated total run time in hh:mm:ss =      0 h 00 m 10 s
 The run will finish approximately on: Sun Nov 08, 2020 17:33
 
 Creating color image of size          763  x          800  for time step 
        4200
 drawing scalar image of the forward wavefield displacement...
 Color image maximum amplitude =   3.019406285602599E-004
 Color image created
 
 
 ******************************************************************
Time step number    4300   t =  257.9400 s out of    4800
 ******************************************************************
 We have done    89.58116     % of the total
 Max norm of vector field in solid (elastic) =   2.8762713E-04
 Elapsed time in seconds =    9.05599999427795     
 Elapsed time in hh:mm:ss =      0 h 00 m 09 s
 Mean elapsed time per time step in seconds =   2.106046510297198E-003
 Time steps remaining =          500
 Estimated remaining time in seconds =    1.05302325514860     
 Estimated remaining time in hh:mm:ss =      0 h 00 m 01 s
 Estimated total run time in seconds =    10.1090232494266     
 Estimated total run time in hh:mm:ss =      0 h 00 m 10 s
 The run will finish approximately on: Sun Nov 08, 2020 17:33
 
 Creating color image of size          763  x          800  for time step 
        4300
 drawing scalar image of the forward wavefield displacement...
 Color image maximum amplitude =   2.886294387280941E-004
 Color image created
 
 
 ******************************************************************
Time step number    4400   t =  263.9400 s out of    4800
 ******************************************************************
 We have done    91.66493     % of the total
 Max norm of vector field in solid (elastic) =   2.9257135E-04
 Elapsed time in seconds =    9.26600003242493     
 Elapsed time in hh:mm:ss =      0 h 00 m 09 s
 Mean elapsed time per time step in seconds =   2.105909098278392E-003
 Time steps remaining =          400
 Estimated remaining time in seconds =   0.842363639311357     
 Estimated remaining time in hh:mm:ss =      0 h 00 m 00 s
 Estimated total run time in seconds =    10.1083636717363     
 Estimated total run time in hh:mm:ss =      0 h 00 m 10 s
 The run will finish approximately on: Sun Nov 08, 2020 17:33
 
 Creating color image of size          763  x          800  for time step 
        4400
 drawing scalar image of the forward wavefield displacement...
 Color image maximum amplitude =   2.918949176091701E-004
 Color image created
 
 
 ******************************************************************
Time step number    4500   t =  269.9400 s out of    4800
 ******************************************************************
 We have done    93.74870     % of the total
 Max norm of vector field in solid (elastic) =   1.6464025E-04
 Elapsed time in seconds =    9.47300004959106     
 Elapsed time in hh:mm:ss =      0 h 00 m 09 s
 Mean elapsed time per time step in seconds =   2.105111122131348E-003
 Time steps remaining =          300
 Estimated remaining time in seconds =   0.631533336639404     
 Estimated remaining time in hh:mm:ss =      0 h 00 m 00 s
 Estimated total run time in seconds =    10.1045333862305     
 Estimated total run time in hh:mm:ss =      0 h 00 m 10 s
 The run will finish approximately on: Sun Nov 08, 2020 17:33
 
 Creating color image of size          763  x          800  for time step 
        4500
 drawing scalar image of the forward wavefield displacement...
 Color image maximum amplitude =   1.647154131205752E-004
 Color image created
 
 
 ******************************************************************
Time step number    4600   t =  275.9400 s out of    4800
 ******************************************************************
 We have done    95.83247     % of the total
 Max norm of vector field in solid (elastic) =   1.6992971E-04
 Elapsed time in seconds =    9.68400001525879     
 Elapsed time in hh:mm:ss =      0 h 00 m 09 s
 Mean elapsed time per time step in seconds =   2.105217394621476E-003
 Time steps remaining =          200
 Estimated remaining time in seconds =   0.421043478924295     
 Estimated remaining time in hh:mm:ss =      0 h 00 m 00 s
 Estimated total run time in seconds =    10.1050434941831     
 Estimated total run time in hh:mm:ss =      0 h 00 m 10 s
 The run will finish approximately on: Sun Nov 08, 2020 17:33
 
 Creating color image of size          763  x          800  for time step 
        4600
 drawing scalar image of the forward wavefield displacement...
 Color image maximum amplitude =   1.701079454505816E-004
 Color image created
 
 
 ******************************************************************
Time step number    4700   t =  281.9400 s out of    4800
 ******************************************************************
 We have done    97.91623     % of the total
 Max norm of vector field in solid (elastic) =   1.6936290E-04
 Elapsed time in seconds =    9.89499998092651     
 Elapsed time in hh:mm:ss =      0 h 00 m 09 s
 Mean elapsed time per time step in seconds =   2.105319144877982E-003
 Time steps remaining =          100
 Estimated remaining time in seconds =   0.210531914487798     
 Estimated remaining time in hh:mm:ss =      0 h 00 m 00 s
 Estimated total run time in seconds =    10.1055318954143     
 Estimated total run time in hh:mm:ss =      0 h 00 m 10 s
 The run will finish approximately on: Sun Nov 08, 2020 17:33
 
 Creating color image of size          763  x          800  for time step 
        4700
 drawing scalar image of the forward wavefield displacement...
 Color image maximum amplitude =   1.691520010353997E-004
 Color image created
 
 
 ******************************************************************
Time step number    4800   t =  287.9400 s out of    4800
 ******************************************************************
 We have done    100.0000     % of the total
 Max norm of vector field in solid (elastic) =   1.6836566E-04
 Elapsed time in seconds =    10.1110000610352     
 Elapsed time in hh:mm:ss =      0 h 00 m 10 s
 Mean elapsed time per time step in seconds =   2.106458346048991E-003
 Time steps remaining =            0
 Estimated remaining time in seconds =   0.000000000000000E+000
 Estimated remaining time in hh:mm:ss =      0 h 00 m 00 s
 Estimated total run time in seconds =    10.1110000610352     
 Estimated total run time in hh:mm:ss =      0 h 00 m 10 s
 
 
 Total number of time steps done:         4800
 Writing the seismograms by main proc alone took   1.0013580E-04  seconds
 
 Creating color image of size          763  x          800  for time step 
        4800
 drawing scalar image of the forward wavefield displacement...
 Color image maximum amplitude =   1.678523549344391E-004
 Color image created
 
 
 Total duration of the time loop in seconds =    10.13806      s
 Total number of time steps =         4800
 Average duration of a time step of the time loop =   2.1120966E-03  s
 Total number of spectral elements in the mesh =         1600
     of which         1600  are regular elements
     and            0  are PML elements.
 Average duration of the calculation per spectral element =   1.3200604E-06  s
 


 -------------------------------------------------------------------------------
 -------------------------------------------------------------------------------
 Program SPECFEM2D: 
 -------------------------------------------------------------------------------
 -------------------------------------------------------------------------------
 checkers
 -------------------------------------------------------------------------------
 -------------------------------------------------------------------------------
 D a t e : 08 - 11 - 2020                                 T i m e  : 17:32:40
 -------------------------------------------------------------------------------
 -------------------------------------------------------------------------------
