 
 **********************************************
 **** Specfem 2-D Solver - serial version  ****
 **********************************************
 
 Running Git version of the code corresponding to 
 commit a213b4bf06b5a89d16eef4d10eba8346c3d9607f
 dating From Date:   Thu Oct 1 10:54:07 2020 -0400
 
 
 NDIM =            2
 
 NGLLX =            5
 NGLLZ =            5
 
 using single precision for the calculations
 
 smallest and largest possible floating-point numbers are:   1.1754944E-38
  3.4028235E+38
 
 Reading the parameter file...
 
 Title of the simulation: checkers
 
 
 Parameter file successfully read 
 
 Reading in SOURCE file...
 
 Source           1
   Position xs, zs =    362079.060000000        61219.2300000000     
 
   Source type (1=force, 2=moment tensor):            1
   Force source:
   Angle of the source (deg) =   0.000000000000000E+000
 
   Time function type (1=Ricker, 2=First derivative, 3=Gaussian, 4=Dirac, 5=Heav
 iside, 6,7=ocean type, 8=Read from file, 9=burst, 10=Sinusoidal, 11=Ormsby):
           1
   Ricker wavelet (second-derivative):
   Frequency, delay =   8.400000000000001E-002  0.000000000000000E+000
   Multiplying factor  =    10000000000.0000     
 
 all sources are okay
 


 -------------------------------------------------------------------------------
 -------------------------------------------------------------------------------
 Program SPECFEM2D: 
 -------------------------------------------------------------------------------
 -------------------------------------------------------------------------------
 checkers
 -------------------------------------------------------------------------------
 -------------------------------------------------------------------------------
 D a t e : 08 - 11 - 2020                                 T i m e  : 17:30:16
 -------------------------------------------------------------------------------
 -------------------------------------------------------------------------------


 C o n t r o l
 =============

     Number of spectral element control nodes. . .(npgeo) =    6561
     Number of space dimensions. . . . . . . . . . (NDIM) =       2


 C o n t r o l
 =============

     Display frequency . . . .(NSTEP_BETWEEN_OUTPUT_INFO) =    100
     Color display . . . . . . . . . . . . . . . (colors) =      1
      == 0     black and white display              
      == 1     color display                        
     Numbered mesh . . . . . . . . . . . . . . .(numbers) =      0
      == 0     do not number the mesh               
      == 1     number the mesh                      


 C o n t r o l
 =============

     Seismograms recording type . . . . . . .(seismotype) = 1
     Angle for first line of receivers. . . . .(anglerec) =   0.00


 C o n t r o l
 =============

     Read external initial field. . . . . .(initialfield) =      F
     Add Bielak conditions (add_Bielak_conditions_bottom) =      F
     Add Bielak conditions .(add_Bielak_conditions_right) =      F
     Add Bielak conditions . .(add_Bielak_conditions_top) =      F
     Add Bielak conditions. .(add_Bielak_conditions_left) =      F
     Attenuation in solid . . .(ATTENUATION_VISCOELASTIC) =      F
     Attenuation in fluid . . (ATTENUATION_VISCOACOUSTIC) =      F
     Save grid in ASCII file or not . (output_grid_ASCII) =      F
     Save a file with total energy or not.(OUTPUT_ENERGY) =      F


 C o n t r o l
 =============

     Vector display type . . . . . . . . .(imagetype_postscript) =      1
     Percentage of cut for vector plots. . . . . . . .(cutsnaps) =   1.00
     Subsampling of velocity model display. (subsamp_postscript) =      1


 I t e r a t i o n s 
 ===================

     Number of time iterations . . . . .(NSTEP) =    4800
     Time step increment. . . . . . . . . .(DT) =   6.000000E-02
     Total simulation duration . . . . . (ttot) =   2.880000E+02
 
 
 reading mesh databases...
 

 -- Spectral Elements --


     Number of spectral elements . . . . . . . . .  (nspec) =   1600
     Number of control nodes per element . . . . . (ngnod) =      9
     Number of points in X-direction . . . . . . . (NGLLX) =      5
     Number of points in Y-direction . . . . . . . (NGLLZ) =      5
     Number of points per element. . . . . . (NGLLX*NGLLZ) =     25
     Number of points for display . . . . . . (pointsdisp) =      6
     Number of element material sets . . . . . . . (numat) =      1
     Number of acoustic forcing elements (nelem_acforcing) =      0
     Number of acoustic free surf (nelem_acoustic_surface) =      0


 M a t e r i a l   s e t s :   2 D  (p o r o) e l a s t i c i t y
 ======================================================

     Number of material sets . . . . . . (numat) =     1


     ----------------------------------------
     -- Elastic (solid) isotropic material --
     ----------------------------------------
     Material set number. . . . . . . . (jmat) =     1
     P-wave velocity. . . . . . . . . . . (cp) = 5.80000000E+03
     S-wave velocity. . . . . . . . . . . (cs) = 3.50000000E+03
     Mass density. . . . . . . . . . (density) = 2.60000000E+03
     Poisson's ratio. . . . . . . . .(poisson) = 2.13651239E-01
     First Lame parameter Lambda. . . (lambda) = 2.37640000E+10
     Second Lame parameter Mu. . . . . . .(mu) = 3.18500000E+10
     Bulk modulus Kappa . . . . . . . .(kappa) = 5.56140000E+10
     Young's modulus E. . . . . . . . .(young) = 8.02334925E+10
     QKappa_attenuation .  . . . . . .(QKappa) = 1.00000000E+01
     Qmu_attenuation . . . . . . . . . . (Qmu) = 1.00000000E+01
 
 
 reading absorbing boundary...
   number of absorbing elements =          160
 
   any absorbing boundary flag  =  T
   PML boundary flag            =  F
   Stacey boundary flag         =  T
 
 
 Absorbing boundaries:
   using Stacey absorbing boundary conditions
 
 Number of absorbing elements:          160
   nspec_left   =           40
   nspec_right  =           40
   nspec_bottom =           40
   nspec_top    =           40
 
 
 Setting up mesh
 
 Generating global mesh numbering (fast version)...
 
 Mesh numbering:
   Total number of elements:         1600
 
   Total number of acoustic elements           =            0
   Total number of elastic/visco/poro elements =         1600
 
 Exact total number of grid points in the mesh:        25921
 Mesh dimensions:
   Xmin,Xmax of the whole mesh =   0.000000000000000E+000
   480000.000000000     
   Zmin,Zmax of the whole mesh =   0.000000000000000E+000
   480000.000000000     
 
 
 setup material arrays
 Domains:
   total number of acoustic elements        =            0
   total number of elastic elements         =         1600
   total number of poroelastic elements     =            0
 
 Setting up MPI communication arrays
 
   maximum number of MPI interfaces (for a single slice) =            0
 
   This is a single process simulation, no need for MPI communication
 
   number of outer elements  =            0
   number of inner elements  =         1600
 
   percentage of outer elements   0.0000000E+00 %
   percentage of inner elements    100.0000     %
 
   number of global nodes in outer elements  =            0
   number of global nodes in inner elements  =        25921
 
   determining communication phases:
   elastic domains:
   total number of outer/inner elements =            0        1600
   total percentage of outer elements   0.0000000E+00 %
   total percentage of inner elements    100.0000     %
 
 All mesh setup done successfully
 
 sources:
   Total number of sources:            1
 
 
   Setting parameters for source           1
 
     Source Type. . . . . . . . . . . . . . = Collocated Force
     X-position (meters). . . . . . . . . . =    3.6207906000E+05
     Y-position (meters). . . . . . . . . . =    6.1219230000E+04
     Fundamental frequency (Hz) . . . . . . =    8.4000000000E-02
     Time delay (s) . . . . . . . . . . . . =    0.0000000000E+00
     Multiplying factor . . . . . . . . . . =    1.0000000000E+10
     Angle from vertical direction (deg). . =    0.0000000000E+00

 
   Source:            1
     Onset time. . . . . . =   -14.2857142857143     
     Fundamental period. . =    11.9047619047619     
     Fundamental frequency =   8.400000000000001E-002
     The onset time is ok
 
 Source:            1
 *******************************
  locating force source
 *******************************
 
 Force source:
             original x:    362079.1    
             original z:    61219.23    
 Closest estimate found:   7.2759576E-12  m away
  in rank            0
  in element          231
  in elastic domain
  at xi,gamma coordinates =  -0.653490000000008      -0.796795000000000     
 
 
 end of force source detection
 
 
 receivers:
 
 Total number of receivers =           22
 
 
 ********************
  locating receivers
 ********************
 
 reading receiver information from the ./DATA/STATIONS file
 
 
 Station #            1     AA      S0001                           
             original x:    300.0000    
             original z:    480000.0    
 Closest estimate found:   5.8207689E-11  m away
  in element         1561
  in rank            0
  at xi,gamma coordinates =  -0.950000000000000        1.00000000000000     
 Distance from source:    553408.9      m
 
 
 Station #            2     AA      S0002                           
             original x:    640.0000    
             original z:    480000.0    
 Closest estimate found:   1.1368684E-13  m away
  in element         1561
  in rank            0
  at xi,gamma coordinates =  -0.893333333333333        1.00000000000000     
 Distance from source:    553186.7      m
 
 
 Station #            3     AA      S0003                           
             original x:    980.0000    
             original z:    480000.0    
 Closest estimate found:   5.8208105E-11  m away
  in element         1561
  in rank            0
  at xi,gamma coordinates =  -0.836666666666667        1.00000000000000     
 Distance from source:    552964.6      m
 
 
 Station #            4     AA      S0004                           
             original x:    1320.000    
             original z:    480000.0    
 Closest estimate found:   5.8208105E-11  m away
  in element         1561
  in rank            0
  at xi,gamma coordinates =  -0.780000000000000        1.00000000000001     
 Distance from source:    552742.6      m
 
 
 Station #            5     AA      S0005                           
             original x:    1660.000    
             original z:    480000.0    
 Closest estimate found:   2.2737368E-13  m away
  in element         1561
  in rank            0
  at xi,gamma coordinates =  -0.723333333333333       0.999999999999999     
 Distance from source:    552520.8      m
 
 
 Station #            6     AA      S0006                           
             original x:    2000.000    
             original z:    480000.0    
 Closest estimate found:   1.1641554E-10  m away
  in element         1561
  in rank            0
  at xi,gamma coordinates =  -0.666666666666667       0.999999999999990     
 Distance from source:    552299.1      m
 
 
 Station #            7     AA      S0007                           
             original x:    2340.000    
             original z:    480000.0    
 Closest estimate found:   4.5474735E-13  m away
  in element         1561
  in rank            0
  at xi,gamma coordinates =  -0.610000000000000       0.999999999999991     
 Distance from source:    552077.4      m
 
 
 Station #            8     AA      S0008                           
             original x:    2680.000    
             original z:    480000.0    
 Closest estimate found:   0.0000000E+00  m away
  in element         1561
  in rank            0
  at xi,gamma coordinates =  -0.553333333333333       0.999999999999992     
 Distance from source:    551856.0      m
 
 
 Station #            9     AA      S0009                           
             original x:    3020.000    
             original z:    480000.0    
 Closest estimate found:   5.8209437E-11  m away
  in element         1561
  in rank            0
  at xi,gamma coordinates =  -0.496666666666667        1.00000000000000     
 Distance from source:    551634.6      m
 
 
 Station #           10     AA      S0010                           
             original x:    3360.000    
             original z:    480000.0    
 Closest estimate found:   0.0000000E+00  m away
  in element         1561
  in rank            0
  at xi,gamma coordinates =  -0.440000000000000        1.00000000000000     
 Distance from source:    551413.4      m
 
 
 Station #           11     AA      S0011                           
             original x:    3700.000    
             original z:    480000.0    
 Closest estimate found:   1.1641621E-10  m away
  in element         1561
  in rank            0
  at xi,gamma coordinates =  -0.383333333333333       0.999999999999994     
 Distance from source:    551192.2      m
 
 
 Station #           12     AA      S0012                           
             original x:    2500.000    
             original z:    2500.000    
 Closest estimate found:   4.5474735E-13  m away
  in element            1
  in rank            0
  at xi,gamma coordinates =  -0.583333333333333      -0.583333333333333     
 Distance from source:    364341.9      m
 
 
 Station #           13     AA      S0013                           
             original x:    2500.000    
             original z:    2250.000    
 Closest estimate found:   0.0000000E+00  m away
  in element            1
  in rank            0
  at xi,gamma coordinates =  -0.583333333333333      -0.625000000000000     
 Distance from source:    364382.3      m
 
 
 Station #           14     AA      S0014                           
             original x:    2500.000    
             original z:    2000.000    
 Closest estimate found:   5.0842300E-13  m away
  in element            1
  in rank            0
  at xi,gamma coordinates =  -0.583333333333333      -0.666666666666667     
 Distance from source:    364422.8      m
 
 
 Station #           15     AA      S0015                           
             original x:    2500.000    
             original z:    1750.000    
 Closest estimate found:   5.0842300E-13  m away
  in element            1
  in rank            0
  at xi,gamma coordinates =  -0.583333333333333      -0.708333333333333     
 Distance from source:    364463.6      m
 
 
 Station #           16     AA      S0016                           
             original x:    2500.000    
             original z:    1500.000    
 Closest estimate found:   2.2737368E-13  m away
  in element            1
  in rank            0
  at xi,gamma coordinates =  -0.583333333333333      -0.750000000000000     
 Distance from source:    364504.4      m
 
 
 Station #           17     AA      S0017                           
             original x:    2500.000    
             original z:    1250.000    
 Closest estimate found:   5.0842300E-13  m away
  in element            1
  in rank            0
  at xi,gamma coordinates =  -0.583333333333333      -0.791666666666667     
 Distance from source:    364545.5      m
 
 
 Station #           18     AA      S0018                           
             original x:    2500.000    
             original z:    1000.000    
 Closest estimate found:   4.5474735E-13  m away
  in element            1
  in rank            0
  at xi,gamma coordinates =  -0.583333333333333      -0.833333333333333     
 Distance from source:    364586.7      m
 
 
 Station #           19     AA      S0019                           
             original x:    2500.000    
             original z:    750.0000    
 Closest estimate found:   4.5474735E-13  m away
  in element            1
  in rank            0
  at xi,gamma coordinates =  -0.583333333333333      -0.875000000000000     
 Distance from source:    364628.1      m
 
 
 Station #           20     AA      S0020                           
             original x:    2500.000    
             original z:    500.0000    
 Closest estimate found:   6.0425384E-13  m away
  in element            1
  in rank            0
  at xi,gamma coordinates =  -0.583333333333333      -0.916666666666667     
 Distance from source:    364669.6      m
 
 
 Station #           21     AA      S0021                           
             original x:    2500.000    
             original z:    250.0000    
 Closest estimate found:   2.2737368E-13  m away
  in element            1
  in rank            0
  at xi,gamma coordinates =  -0.583333333333333      -0.958333333333333     
 Distance from source:    364711.3      m
 
 
 Station #           22     AA      S0022                           
             original x:    2500.000    
             original z:   0.0000000E+00
 Closest estimate found:   4.5474735E-13  m away
  in element            1
  in rank            0
  at xi,gamma coordinates =  -0.583333333333333       -1.00000000000000     
 Distance from source:    364753.2      m
 
 
 end of receiver detection
 
 found a total of           22  receivers, this is okay
 
 
 preparing timerun...
 
 
 Preparing array allocations
   arrays for elastic domains
   wavefield initialization
   done initialization
 
 Attenuation:
   viscoelastic  attenuation: F (shear & bulk attenuation in elastic domains)
   viscoacoustic attenuation: F (bulk attenuation in acoustic domains)
 
 Preparing mass matrices
   initializing mass matrices
   inverting mass matrices
 
 Preparing image coloring
 
 Checking mesh and stability
 
 ********
 Model: P (or PI) velocity min,max =    5800.00000000000     
   5800.00000000000     
 Model: S velocity min,max         =    3500.00000000000     
   3500.00000000000     
 Model: density min,max            =    2600.00000000000     
   2600.00000000000     
 ********
 
 
 *********************************************
 *** Verification of simulation parameters ***
 *********************************************
 
 *** Max grid size =    12000.0000000000     
 *** Min grid size =    12000.0000000000     
 *** Max/min ratio =    1.00000000000000     
 
 *** Minimum GLL point distance  =    2072.07797575214     
 *** Average GLL point distance  =    3000.00000000000     
 
 *** Minimum period resolved     =    4.28571428571429     
 *** Maximum frequency resolved  =   0.233333333333333      Hz
 
 *** Maximum suggested time step                 =   0.178627411702770     
 *** Maximum suggested (Ricker) source frequency =   9.333333333333334E-002
 
 *** for DT :   5.9999999E-02
 *** Max CFL stability condition of the time scheme based on P wave velocity (mu
 st be below about 0.50 or so) =   0.167947343822944     
 
 ----
 Number of points per wavelength:
 ----
   Source            1
   maximum dominant source frequency =   0.210000000000000      Hz
 
   Nb pts / lambdaP_fmax min =    9.206349    
   Nb pts / lambdaP_fmax max =    9.206349    
 
   Nb pts / lambdaS_fmax min =    5.555555    
   Nb pts / lambdaS_fmax max =    5.555555    
 
 -----------------------------------------
 
 histogram of min number of points per S wavelength in solid regions:
 
 there are         1600  elements out of         1600  in solid regions
   (i.e.,    100.0000     % of the total)
 
 (too small = poor resolution of calculations -
  too big = wasting memory and CPU time)
 (threshold value is around 4.5 points per S wavelength
  in elastic regions and 5.5 per P wavelength in fluid regions):
 
   5.500000      -    5.505556               0    0.0000000E+00  %
   5.505556      -    5.511111               0    0.0000000E+00  %
   5.511111      -    5.516667               0    0.0000000E+00  %
   5.516667      -    5.522222               0    0.0000000E+00  %
   5.522222      -    5.527778               0    0.0000000E+00  %
   5.527778      -    5.533333               0    0.0000000E+00  %
   5.533333      -    5.538889               0    0.0000000E+00  %
   5.538889      -    5.544445               0    0.0000000E+00  %
   5.544445      -    5.550000               0    0.0000000E+00  %
   5.550000      -    5.555555            1600     100.0000      %
   5.555555      -    5.561111               0    0.0000000E+00  %
   5.561111      -    5.566667               0    0.0000000E+00  %
   5.566667      -    5.572222               0    0.0000000E+00  %
   5.572222      -    5.577778               0    0.0000000E+00  %
   5.577778      -    5.583333               0    0.0000000E+00  %
   5.583333      -    5.588889               0    0.0000000E+00  %
   5.588889      -    5.594444               0    0.0000000E+00  %
   5.594444      -    5.600000               0    0.0000000E+00  %
   5.600000      -    5.605556               0    0.0000000E+00  %
   5.605556      -    5.611111               0    0.0000000E+00  %
 
 total percentage =    100.000000000000       %
 
 
 total number of elements in fluid and solid regions =         1600
 
 
 Preparing source time function
   time stepping scheme:   Newmark
   time stepping stages:            1
   time step size      :   5.9999999E-02
 
   number of time steps:         4800
   number of sources   :            1
 
   saving the source time function in a text file...
 
 
 Preparing image coloring
   allocating color image arrays
   locating all the pixels of color images
   total number of image pixels =       579882
   done locating all the pixels of color images
   coloring image background based on vp
 
 done, preparation successful
 

 =========================================
 =  T i m e  e v o l u t i o n  l o o p  =
 =========================================

 
 Starting time iteration loop in undoing attenuation...
 
 
 ******************************************************************
Time step number       5   t =    0.2400 s out of    4800
 ******************************************************************
 We have done   8.3350696E-02 % of the total
 Max norm of vector field in solid (elastic) =   1.3131671E-07
 Elapsed time in seconds =   6.999969482421875E-003
 Elapsed time in hh:mm:ss =      0 h 00 m 00 s
 Mean elapsed time per time step in seconds =   1.399993896484375E-003
 Time steps remaining =         4795
 Estimated remaining time in seconds =    6.71297073364258     
 Estimated remaining time in hh:mm:ss =      0 h 00 m 06 s
 Estimated total run time in seconds =    6.71997070312500     
 Estimated total run time in hh:mm:ss =      0 h 00 m 06 s
 The run will finish approximately on: Sun Nov 08, 2020 17:30
 
 Creating color image of size          763  x          800  for time step 
           5
 drawing scalar image of the forward wavefield displacement...
 Color image maximum amplitude =   2.245402299649868E-007
 Color image created
 
 
 ******************************************************************
Time step number     100   t =    5.9400 s out of    4800
 ******************************************************************
 We have done    2.062930     % of the total
 Max norm of vector field in solid (elastic) =   4.2609922E-03
 Elapsed time in seconds =   0.186000108718872     
 Elapsed time in hh:mm:ss =      0 h 00 m 00 s
 Mean elapsed time per time step in seconds =   1.860001087188721E-003
 Time steps remaining =         4700
 Estimated remaining time in seconds =    8.74200510978699     
 Estimated remaining time in hh:mm:ss =      0 h 00 m 08 s
 Estimated total run time in seconds =    8.92800521850586     
 Estimated total run time in hh:mm:ss =      0 h 00 m 08 s
 The run will finish approximately on: Sun Nov 08, 2020 17:30
 
 Creating color image of size          763  x          800  for time step 
         100
 drawing scalar image of the forward wavefield displacement...
 Color image maximum amplitude =   4.529222846031189E-003
 Color image created
 
 
 ******************************************************************
Time step number     200   t =   11.9400 s out of    4800
 ******************************************************************
 We have done    4.146697     % of the total
 Max norm of vector field in solid (elastic) =   4.2417336E-02
 Elapsed time in seconds =   0.375000000000000     
 Elapsed time in hh:mm:ss =      0 h 00 m 00 s
 Mean elapsed time per time step in seconds =   1.875000000000000E-003
 Time steps remaining =         4600
 Estimated remaining time in seconds =    8.62500000000000     
 Estimated remaining time in hh:mm:ss =      0 h 00 m 08 s
 Estimated total run time in seconds =    9.00000000000000     
 Estimated total run time in hh:mm:ss =      0 h 00 m 09 s
 The run will finish approximately on: Sun Nov 08, 2020 17:30
 
 Creating color image of size          763  x          800  for time step 
         200
 drawing scalar image of the forward wavefield displacement...
 Color image maximum amplitude =   4.133789613842964E-002
 Color image created
 
 
 ******************************************************************
Time step number     300   t =   17.9400 s out of    4800
 ******************************************************************
 We have done    6.230464     % of the total
 Max norm of vector field in solid (elastic) =   5.5222772E-02
 Elapsed time in seconds =   0.562999963760376     
 Elapsed time in hh:mm:ss =      0 h 00 m 00 s
 Mean elapsed time per time step in seconds =   1.876666545867920E-003
 Time steps remaining =         4500
 Estimated remaining time in seconds =    8.44499945640564     
 Estimated remaining time in hh:mm:ss =      0 h 00 m 08 s
 Estimated total run time in seconds =    9.00799942016602     
 Estimated total run time in hh:mm:ss =      0 h 00 m 09 s
 The run will finish approximately on: Sun Nov 08, 2020 17:30
 
 Creating color image of size          763  x          800  for time step 
         300
 drawing scalar image of the forward wavefield displacement...
 Color image maximum amplitude =   5.431972071528435E-002
 Color image created
 
 
 ******************************************************************
Time step number     400   t =   23.9400 s out of    4800
 ******************************************************************
 We have done    8.314232     % of the total
 Max norm of vector field in solid (elastic) =   2.9052325E-02
 Elapsed time in seconds =   0.752000093460083     
 Elapsed time in hh:mm:ss =      0 h 00 m 00 s
 Mean elapsed time per time step in seconds =   1.880000233650207E-003
 Time steps remaining =         4400
 Estimated remaining time in seconds =    8.27200102806091     
 Estimated remaining time in hh:mm:ss =      0 h 00 m 08 s
 Estimated total run time in seconds =    9.02400112152100     
 Estimated total run time in hh:mm:ss =      0 h 00 m 09 s
 The run will finish approximately on: Sun Nov 08, 2020 17:30
 
 Creating color image of size          763  x          800  for time step 
         400
 drawing scalar image of the forward wavefield displacement...
 Color image maximum amplitude =   2.894802205264568E-002
 Color image created
 
 
 ******************************************************************
Time step number     500   t =   29.9400 s out of    4800
 ******************************************************************
 We have done    10.39800     % of the total
 Max norm of vector field in solid (elastic) =   2.2104578E-02
 Elapsed time in seconds =   0.943000078201294     
 Elapsed time in hh:mm:ss =      0 h 00 m 00 s
 Mean elapsed time per time step in seconds =   1.886000156402588E-003
 Time steps remaining =         4300
 Estimated remaining time in seconds =    8.10980067253113     
 Estimated remaining time in hh:mm:ss =      0 h 00 m 08 s
 Estimated total run time in seconds =    9.05280075073242     
 Estimated total run time in hh:mm:ss =      0 h 00 m 09 s
 The run will finish approximately on: Sun Nov 08, 2020 17:30
 
 Creating color image of size          763  x          800  for time step 
         500
 drawing scalar image of the forward wavefield displacement...
 Color image maximum amplitude =   2.207325212657452E-002
 Color image created
 
 
 ******************************************************************
Time step number     600   t =   35.9400 s out of    4800
 ******************************************************************
 We have done    12.48177     % of the total
 Max norm of vector field in solid (elastic) =   1.9240510E-02
 Elapsed time in seconds =    1.13499999046326     
 Elapsed time in hh:mm:ss =      0 h 00 m 01 s
 Mean elapsed time per time step in seconds =   1.891666650772095E-003
 Time steps remaining =         4200
 Estimated remaining time in seconds =    7.94499993324280     
 Estimated remaining time in hh:mm:ss =      0 h 00 m 07 s
 Estimated total run time in seconds =    9.07999992370605     
 Estimated total run time in hh:mm:ss =      0 h 00 m 09 s
 The run will finish approximately on: Sun Nov 08, 2020 17:30
 
 Creating color image of size          763  x          800  for time step 
         600
 drawing scalar image of the forward wavefield displacement...
 Color image maximum amplitude =   1.924102939665318E-002
 Color image created
 
 
 ******************************************************************
Time step number     700   t =   41.9400 s out of    4800
 ******************************************************************
 We have done    14.56553     % of the total
 Max norm of vector field in solid (elastic) =   1.7643420E-02
 Elapsed time in seconds =    1.32899999618530     
 Elapsed time in hh:mm:ss =      0 h 00 m 01 s
 Mean elapsed time per time step in seconds =   1.898571423121861E-003
 Time steps remaining =         4100
 Estimated remaining time in seconds =    7.78414283479963     
 Estimated remaining time in hh:mm:ss =      0 h 00 m 07 s
 Estimated total run time in seconds =    9.11314283098493     
 Estimated total run time in hh:mm:ss =      0 h 00 m 09 s
 The run will finish approximately on: Sun Nov 08, 2020 17:30
 
 Creating color image of size          763  x          800  for time step 
         700
 drawing scalar image of the forward wavefield displacement...
 Color image maximum amplitude =   1.765811815857887E-002
 Color image created
 
 
 ******************************************************************
Time step number     800   t =   47.9400 s out of    4800
 ******************************************************************
 We have done    16.64930     % of the total
 Max norm of vector field in solid (elastic) =   1.6447764E-02
 Elapsed time in seconds =    1.52400016784668     
 Elapsed time in hh:mm:ss =      0 h 00 m 01 s
 Mean elapsed time per time step in seconds =   1.905000209808350E-003
 Time steps remaining =         4000
 Estimated remaining time in seconds =    7.62000083923340     
 Estimated remaining time in hh:mm:ss =      0 h 00 m 07 s
 Estimated total run time in seconds =    9.14400100708008     
 Estimated total run time in hh:mm:ss =      0 h 00 m 09 s
 The run will finish approximately on: Sun Nov 08, 2020 17:30
 
 Creating color image of size          763  x          800  for time step 
         800
 drawing scalar image of the forward wavefield displacement...
 Color image maximum amplitude =   1.640410721302032E-002
 Color image created
 
 
 ******************************************************************
Time step number     900   t =   53.9400 s out of    4800
 ******************************************************************
 We have done    18.73307     % of the total
 Max norm of vector field in solid (elastic) =   1.5541391E-02
 Elapsed time in seconds =    1.72000002861023     
 Elapsed time in hh:mm:ss =      0 h 00 m 01 s
 Mean elapsed time per time step in seconds =   1.911111142900255E-003
 Time steps remaining =         3900
 Estimated remaining time in seconds =    7.45333345731099     
 Estimated remaining time in hh:mm:ss =      0 h 00 m 07 s
 Estimated total run time in seconds =    9.17333348592122     
 Estimated total run time in hh:mm:ss =      0 h 00 m 09 s
 The run will finish approximately on: Sun Nov 08, 2020 17:30
 
 Creating color image of size          763  x          800  for time step 
         900
 drawing scalar image of the forward wavefield displacement...
 Color image maximum amplitude =   1.550644170492887E-002
 Color image created
 
 
 ******************************************************************
Time step number    1000   t =   59.9400 s out of    4800
 ******************************************************************
 We have done    20.81684     % of the total
 Max norm of vector field in solid (elastic) =   1.4510840E-02
 Elapsed time in seconds =    1.91700005531311     
 Elapsed time in hh:mm:ss =      0 h 00 m 01 s
 Mean elapsed time per time step in seconds =   1.917000055313110E-003
 Time steps remaining =         3800
 Estimated remaining time in seconds =    7.28460021018982     
 Estimated remaining time in hh:mm:ss =      0 h 00 m 07 s
 Estimated total run time in seconds =    9.20160026550293     
 Estimated total run time in hh:mm:ss =      0 h 00 m 09 s
 The run will finish approximately on: Sun Nov 08, 2020 17:30
 
 
 Total number of time steps done:         1000
 Writing the seismograms by main proc alone took   3.1805038E-04  seconds
 
 Creating color image of size          763  x          800  for time step 
        1000
 drawing scalar image of the forward wavefield displacement...
 Color image maximum amplitude =   1.458866428583860E-002
 Color image created
 
 
 ******************************************************************
Time step number    1100   t =   65.9400 s out of    4800
 ******************************************************************
 We have done    22.90060     % of the total
 Max norm of vector field in solid (elastic) =   1.4108501E-02
 Elapsed time in seconds =    2.11400008201599     
 Elapsed time in hh:mm:ss =      0 h 00 m 02 s
 Mean elapsed time per time step in seconds =   1.921818256378174E-003
 Time steps remaining =         3700
 Estimated remaining time in seconds =    7.11072754859924     
 Estimated remaining time in hh:mm:ss =      0 h 00 m 07 s
 Estimated total run time in seconds =    9.22472763061523     
 Estimated total run time in hh:mm:ss =      0 h 00 m 09 s
 The run will finish approximately on: Sun Nov 08, 2020 17:30
 
 Creating color image of size          763  x          800  for time step 
        1100
 drawing scalar image of the forward wavefield displacement...
 Color image maximum amplitude =   1.404911372810602E-002
 Color image created
 
 
 ******************************************************************
Time step number    1200   t =   71.9400 s out of    4800
 ******************************************************************
 We have done    24.98437     % of the total
 Max norm of vector field in solid (elastic) =   1.3530278E-02
 Elapsed time in seconds =    2.31500005722046     
 Elapsed time in hh:mm:ss =      0 h 00 m 02 s
 Mean elapsed time per time step in seconds =   1.929166714350382E-003
 Time steps remaining =         3600
 Estimated remaining time in seconds =    6.94500017166138     
 Estimated remaining time in hh:mm:ss =      0 h 00 m 06 s
 Estimated total run time in seconds =    9.26000022888184     
 Estimated total run time in hh:mm:ss =      0 h 00 m 09 s
 The run will finish approximately on: Sun Nov 08, 2020 17:30
 
 Creating color image of size          763  x          800  for time step 
        1200
 drawing scalar image of the forward wavefield displacement...
 Color image maximum amplitude =   1.347323507070541E-002
 Color image created
 
 
 ******************************************************************
Time step number    1300   t =   77.9400 s out of    4800
 ******************************************************************
 We have done    27.06814     % of the total
 Max norm of vector field in solid (elastic) =   1.3111504E-02
 Elapsed time in seconds =    2.51300001144409     
 Elapsed time in hh:mm:ss =      0 h 00 m 02 s
 Mean elapsed time per time step in seconds =   1.933076931880071E-003
 Time steps remaining =         3500
 Estimated remaining time in seconds =    6.76576926158025     
 Estimated remaining time in hh:mm:ss =      0 h 00 m 06 s
 Estimated total run time in seconds =    9.27876927302434     
 Estimated total run time in hh:mm:ss =      0 h 00 m 09 s
 The run will finish approximately on: Sun Nov 08, 2020 17:30
 
 Creating color image of size          763  x          800  for time step 
        1300
 drawing scalar image of the forward wavefield displacement...
 Color image maximum amplitude =   1.307032722979784E-002
 Color image created
 
 
 ******************************************************************
Time step number    1400   t =   83.9400 s out of    4800
 ******************************************************************
 We have done    29.15191     % of the total
 Max norm of vector field in solid (elastic) =   1.2117499E-02
 Elapsed time in seconds =    2.71200013160706     
 Elapsed time in hh:mm:ss =      0 h 00 m 02 s
 Mean elapsed time per time step in seconds =   1.937142951147897E-003
 Time steps remaining =         3400
 Estimated remaining time in seconds =    6.58628603390285     
 Estimated remaining time in hh:mm:ss =      0 h 00 m 06 s
 Estimated total run time in seconds =    9.29828616550991     
 Estimated total run time in hh:mm:ss =      0 h 00 m 09 s
 The run will finish approximately on: Sun Nov 08, 2020 17:30
 
 Creating color image of size          763  x          800  for time step 
        1400
 drawing scalar image of the forward wavefield displacement...
 Color image maximum amplitude =   1.208697352558374E-002
 Color image created
 
 
 ******************************************************************
Time step number    1500   t =   89.9400 s out of    4800
 ******************************************************************
 We have done    31.23567     % of the total
 Max norm of vector field in solid (elastic) =   1.2212577E-02
 Elapsed time in seconds =    2.91199994087219     
 Elapsed time in hh:mm:ss =      0 h 00 m 02 s
 Mean elapsed time per time step in seconds =   1.941333293914795E-003
 Time steps remaining =         3300
 Estimated remaining time in seconds =    6.40639986991882     
 Estimated remaining time in hh:mm:ss =      0 h 00 m 06 s
 Estimated total run time in seconds =    9.31839981079102     
 Estimated total run time in hh:mm:ss =      0 h 00 m 09 s
 The run will finish approximately on: Sun Nov 08, 2020 17:30
 
 Creating color image of size          763  x          800  for time step 
        1500
 drawing scalar image of the forward wavefield displacement...
 Color image maximum amplitude =   1.225579716265202E-002
 Color image created
 
 
 ******************************************************************
Time step number    1600   t =   95.9400 s out of    4800
 ******************************************************************
 We have done    33.31944     % of the total
 Max norm of vector field in solid (elastic) =   1.1879889E-02
 Elapsed time in seconds =    3.11300015449524     
 Elapsed time in hh:mm:ss =      0 h 00 m 03 s
 Mean elapsed time per time step in seconds =   1.945625096559525E-003
 Time steps remaining =         3200
 Estimated remaining time in seconds =    6.22600030899048     
 Estimated remaining time in hh:mm:ss =      0 h 00 m 06 s
 Estimated total run time in seconds =    9.33900046348572     
 Estimated total run time in hh:mm:ss =      0 h 00 m 09 s
 The run will finish approximately on: Sun Nov 08, 2020 17:30
 
 Creating color image of size          763  x          800  for time step 
        1600
 drawing scalar image of the forward wavefield displacement...
 Color image maximum amplitude =   1.183708664029837E-002
 Color image created
 
 
 ******************************************************************
Time step number    1700   t =  101.9400 s out of    4800
 ******************************************************************
 We have done    35.40321     % of the total
 Max norm of vector field in solid (elastic) =   1.1614984E-02
 Elapsed time in seconds =    3.31500005722046     
 Elapsed time in hh:mm:ss =      0 h 00 m 03 s
 Mean elapsed time per time step in seconds =   1.950000033659093E-003
 Time steps remaining =         3100
 Estimated remaining time in seconds =    6.04500010434319     
 Estimated remaining time in hh:mm:ss =      0 h 00 m 06 s
 Estimated total run time in seconds =    9.36000016156365     
 Estimated total run time in hh:mm:ss =      0 h 00 m 09 s
 The run will finish approximately on: Sun Nov 08, 2020 17:30
 
 Creating color image of size          763  x          800  for time step 
        1700
 drawing scalar image of the forward wavefield displacement...
 Color image maximum amplitude =   1.161440368741751E-002
 Color image created
 
 
 ******************************************************************
Time step number    1800   t =  107.9400 s out of    4800
 ******************************************************************
 We have done    37.48698     % of the total
 Max norm of vector field in solid (elastic) =   1.1179296E-02
 Elapsed time in seconds =    3.51800012588501     
 Elapsed time in hh:mm:ss =      0 h 00 m 03 s
 Mean elapsed time per time step in seconds =   1.954444514380561E-003
 Time steps remaining =         3000
 Estimated remaining time in seconds =    5.86333354314168     
 Estimated remaining time in hh:mm:ss =      0 h 00 m 05 s
 Estimated total run time in seconds =    9.38133366902669     
 Estimated total run time in hh:mm:ss =      0 h 00 m 09 s
 The run will finish approximately on: Sun Nov 08, 2020 17:30
 
 Creating color image of size          763  x          800  for time step 
        1800
 drawing scalar image of the forward wavefield displacement...
 Color image maximum amplitude =   1.123183779418468E-002
 Color image created
 
 
 ******************************************************************
Time step number    1900   t =  113.9400 s out of    4800
 ******************************************************************
 We have done    39.57074     % of the total
 Max norm of vector field in solid (elastic) =   1.1033507E-02
 Elapsed time in seconds =    3.72099995613098     
 Elapsed time in hh:mm:ss =      0 h 00 m 03 s
 Mean elapsed time per time step in seconds =   1.958421029542622E-003
 Time steps remaining =         2900
 Estimated remaining time in seconds =    5.67942098567360     
 Estimated remaining time in hh:mm:ss =      0 h 00 m 05 s
 Estimated total run time in seconds =    9.40042094180458     
 Estimated total run time in hh:mm:ss =      0 h 00 m 09 s
 The run will finish approximately on: Sun Nov 08, 2020 17:30
 
 Creating color image of size          763  x          800  for time step 
        1900
 drawing scalar image of the forward wavefield displacement...
 Color image maximum amplitude =   1.101089455187321E-002
 Color image created
 
 
 ******************************************************************
Time step number    2000   t =  119.9400 s out of    4800
 ******************************************************************
 We have done    41.65451     % of the total
 Max norm of vector field in solid (elastic) =   1.0182768E-02
 Elapsed time in seconds =    3.92499995231628     
 Elapsed time in hh:mm:ss =      0 h 00 m 03 s
 Mean elapsed time per time step in seconds =   1.962499976158142E-003
 Time steps remaining =         2800
 Estimated remaining time in seconds =    5.49499993324280     
 Estimated remaining time in hh:mm:ss =      0 h 00 m 05 s
 Estimated total run time in seconds =    9.41999988555908     
 Estimated total run time in hh:mm:ss =      0 h 00 m 09 s
 The run will finish approximately on: Sun Nov 08, 2020 17:30
 
 
 Total number of time steps done:         2000
 Writing the seismograms by main proc alone took   1.2207031E-04  seconds
 
 Creating color image of size          763  x          800  for time step 
        2000
 drawing scalar image of the forward wavefield displacement...
 Color image maximum amplitude =   1.011082250624895E-002
 Color image created
 
 
 ******************************************************************
Time step number    2100   t =  125.9400 s out of    4800
 ******************************************************************
 We have done    43.73828     % of the total
 Max norm of vector field in solid (elastic) =   1.0066774E-02
 Elapsed time in seconds =    4.13000011444092     
 Elapsed time in hh:mm:ss =      0 h 00 m 04 s
 Mean elapsed time per time step in seconds =   1.966666721162342E-003
 Time steps remaining =         2700
 Estimated remaining time in seconds =    5.31000014713832     
 Estimated remaining time in hh:mm:ss =      0 h 00 m 05 s
 Estimated total run time in seconds =    9.44000026157924     
 Estimated total run time in hh:mm:ss =      0 h 00 m 09 s
 The run will finish approximately on: Sun Nov 08, 2020 17:30
 
 Creating color image of size          763  x          800  for time step 
        2100
 drawing scalar image of the forward wavefield displacement...
 Color image maximum amplitude =   1.009845547378063E-002
 Color image created
 
 
 ******************************************************************
Time step number    2200   t =  131.9400 s out of    4800
 ******************************************************************
 We have done    45.82204     % of the total
 Max norm of vector field in solid (elastic) =   9.8238252E-03
 Elapsed time in seconds =    4.33400011062622     
 Elapsed time in hh:mm:ss =      0 h 00 m 04 s
 Mean elapsed time per time step in seconds =   1.970000050284646E-003
 Time steps remaining =         2600
 Estimated remaining time in seconds =    5.12200013074008     
 Estimated remaining time in hh:mm:ss =      0 h 00 m 05 s
 Estimated total run time in seconds =    9.45600024136630     
 Estimated total run time in hh:mm:ss =      0 h 00 m 09 s
 The run will finish approximately on: Sun Nov 08, 2020 17:30
 
 Creating color image of size          763  x          800  for time step 
        2200
 drawing scalar image of the forward wavefield displacement...
 Color image maximum amplitude =   9.758952073752880E-003
 Color image created
 
 
 ******************************************************************
Time step number    2300   t =  137.9400 s out of    4800
 ******************************************************************
 We have done    47.90582     % of the total
 Max norm of vector field in solid (elastic) =   9.5307613E-03
 Elapsed time in seconds =    4.53800010681152     
 Elapsed time in hh:mm:ss =      0 h 00 m 04 s
 Mean elapsed time per time step in seconds =   1.973043524700663E-003
 Time steps remaining =         2500
 Estimated remaining time in seconds =    4.93260881175166     
 Estimated remaining time in hh:mm:ss =      0 h 00 m 04 s
 Estimated total run time in seconds =    9.47060891856318     
 Estimated total run time in hh:mm:ss =      0 h 00 m 09 s
 The run will finish approximately on: Sun Nov 08, 2020 17:30
 
 Creating color image of size          763  x          800  for time step 
        2300
 drawing scalar image of the forward wavefield displacement...
 Color image maximum amplitude =   9.481335058808327E-003
 Color image created
 
 
 ******************************************************************
Time step number    2400   t =  143.9400 s out of    4800
 ******************************************************************
 We have done    49.98958     % of the total
 Max norm of vector field in solid (elastic) =   7.7963108E-03
 Elapsed time in seconds =    4.74000000953674     
 Elapsed time in hh:mm:ss =      0 h 00 m 04 s
 Mean elapsed time per time step in seconds =   1.975000003973643E-003
 Time steps remaining =         2400
 Estimated remaining time in seconds =    4.74000000953674     
 Estimated remaining time in hh:mm:ss =      0 h 00 m 04 s
 Estimated total run time in seconds =    9.48000001907349     
 Estimated total run time in hh:mm:ss =      0 h 00 m 09 s
 The run will finish approximately on: Sun Nov 08, 2020 17:30
 
 Creating color image of size          763  x          800  for time step 
        2400
 drawing scalar image of the forward wavefield displacement...
 Color image maximum amplitude =   7.767063565552235E-003
 Color image created
 
 
 ******************************************************************
Time step number    2500   t =  149.9400 s out of    4800
 ******************************************************************
 We have done    52.07335     % of the total
 Max norm of vector field in solid (elastic) =   7.6778699E-03
 Elapsed time in seconds =    4.94300007820129     
 Elapsed time in hh:mm:ss =      0 h 00 m 04 s
 Mean elapsed time per time step in seconds =   1.977200031280517E-003
 Time steps remaining =         2300
 Estimated remaining time in seconds =    4.54756007194519     
 Estimated remaining time in hh:mm:ss =      0 h 00 m 04 s
 Estimated total run time in seconds =    9.49056015014648     
 Estimated total run time in hh:mm:ss =      0 h 00 m 09 s
 The run will finish approximately on: Sun Nov 08, 2020 17:30
 
 Creating color image of size          763  x          800  for time step 
        2500
 drawing scalar image of the forward wavefield displacement...
 Color image maximum amplitude =   7.694560568779707E-003
 Color image created
 
 
 ******************************************************************
Time step number    2600   t =  155.9400 s out of    4800
 ******************************************************************
 We have done    54.15712     % of the total
 Max norm of vector field in solid (elastic) =   7.6719504E-03
 Elapsed time in seconds =    5.14400005340576     
 Elapsed time in hh:mm:ss =      0 h 00 m 05 s
 Mean elapsed time per time step in seconds =   1.978461559002216E-003
 Time steps remaining =         2200
 Estimated remaining time in seconds =    4.35261542980488     
 Estimated remaining time in hh:mm:ss =      0 h 00 m 04 s
 Estimated total run time in seconds =    9.49661548321064     
 Estimated total run time in hh:mm:ss =      0 h 00 m 09 s
 The run will finish approximately on: Sun Nov 08, 2020 17:30
 
 Creating color image of size          763  x          800  for time step 
        2600
 drawing scalar image of the forward wavefield displacement...
 Color image maximum amplitude =   7.662829943001270E-003
 Color image created
 
 
 ******************************************************************
Time step number    2700   t =  161.9400 s out of    4800
 ******************************************************************
 We have done    56.24088     % of the total
 Max norm of vector field in solid (elastic) =   7.5078928E-03
 Elapsed time in seconds =    5.34500002861023     
 Elapsed time in hh:mm:ss =      0 h 00 m 05 s
 Mean elapsed time per time step in seconds =   1.979629640226011E-003
 Time steps remaining =         2100
 Estimated remaining time in seconds =    4.15722224447462     
 Estimated remaining time in hh:mm:ss =      0 h 00 m 04 s
 Estimated total run time in seconds =    9.50222227308485     
 Estimated total run time in hh:mm:ss =      0 h 00 m 09 s
 The run will finish approximately on: Sun Nov 08, 2020 17:30
 
 Creating color image of size          763  x          800  for time step 
        2700
 drawing scalar image of the forward wavefield displacement...
 Color image maximum amplitude =   7.533129770308733E-003
 Color image created
 
 
 ******************************************************************
Time step number    2800   t =  167.9400 s out of    4800
 ******************************************************************
 We have done    58.32465     % of the total
 Max norm of vector field in solid (elastic) =   7.8539215E-03
 Elapsed time in seconds =    5.54500007629395     
 Elapsed time in hh:mm:ss =      0 h 00 m 05 s
 Mean elapsed time per time step in seconds =   1.980357170104980E-003
 Time steps remaining =         2000
 Estimated remaining time in seconds =    3.96071434020996     
 Estimated remaining time in hh:mm:ss =      0 h 00 m 03 s
 Estimated total run time in seconds =    9.50571441650391     
 Estimated total run time in hh:mm:ss =      0 h 00 m 09 s
 The run will finish approximately on: Sun Nov 08, 2020 17:30
 
 Creating color image of size          763  x          800  for time step 
        2800
 drawing scalar image of the forward wavefield displacement...
 Color image maximum amplitude =   7.878998294472694E-003
 Color image created
 
 
 ******************************************************************
Time step number    2900   t =  173.9400 s out of    4800
 ******************************************************************
 We have done    60.40842     % of the total
 Max norm of vector field in solid (elastic) =   4.7348770E-03
 Elapsed time in seconds =    5.74300003051758     
 Elapsed time in hh:mm:ss =      0 h 00 m 05 s
 Mean elapsed time per time step in seconds =   1.980344838109510E-003
 Time steps remaining =         1900
 Estimated remaining time in seconds =    3.76265519240807     
 Estimated remaining time in hh:mm:ss =      0 h 00 m 03 s
 Estimated total run time in seconds =    9.50565522292565     
 Estimated total run time in hh:mm:ss =      0 h 00 m 09 s
 The run will finish approximately on: Sun Nov 08, 2020 17:30
 
 Creating color image of size          763  x          800  for time step 
        2900
 drawing scalar image of the forward wavefield displacement...
 Color image maximum amplitude =   4.687428474426270E-003
 Color image created
 
 
 ******************************************************************
Time step number    3000   t =  179.9400 s out of    4800
 ******************************************************************
 We have done    62.49219     % of the total
 Max norm of vector field in solid (elastic) =   1.5217331E-03
 Elapsed time in seconds =    5.94400000572205     
 Elapsed time in hh:mm:ss =      0 h 00 m 05 s
 Mean elapsed time per time step in seconds =   1.981333335240682E-003
 Time steps remaining =         1800
 Estimated remaining time in seconds =    3.56640000343323     
 Estimated remaining time in hh:mm:ss =      0 h 00 m 03 s
 Estimated total run time in seconds =    9.51040000915527     
 Estimated total run time in hh:mm:ss =      0 h 00 m 09 s
 The run will finish approximately on: Sun Nov 08, 2020 17:30
 
 
 Total number of time steps done:         3000
 Writing the seismograms by main proc alone took   1.2397766E-04  seconds
 
 Creating color image of size          763  x          800  for time step 
        3000
 drawing scalar image of the forward wavefield displacement...
 Color image maximum amplitude =   1.516082789748907E-003
 Color image created
 
 
 ******************************************************************
Time step number    3100   t =  185.9400 s out of    4800
 ******************************************************************
 We have done    64.57595     % of the total
 Max norm of vector field in solid (elastic) =   1.4669412E-03
 Elapsed time in seconds =    6.15000009536743     
 Elapsed time in hh:mm:ss =      0 h 00 m 06 s
 Mean elapsed time per time step in seconds =   1.983870998505623E-003
 Time steps remaining =         1700
 Estimated remaining time in seconds =    3.37258069745956     
 Estimated remaining time in hh:mm:ss =      0 h 00 m 03 s
 Estimated total run time in seconds =    9.52258079282699     
 Estimated total run time in hh:mm:ss =      0 h 00 m 09 s
 The run will finish approximately on: Sun Nov 08, 2020 17:30
 
 Creating color image of size          763  x          800  for time step 
        3100
 drawing scalar image of the forward wavefield displacement...
 Color image maximum amplitude =   1.481054350733757E-003
 Color image created
 
 
 ******************************************************************
Time step number    3200   t =  191.9400 s out of    4800
 ******************************************************************
 We have done    66.65972     % of the total
 Max norm of vector field in solid (elastic) =   1.5814172E-03
 Elapsed time in seconds =    6.35599994659424     
 Elapsed time in hh:mm:ss =      0 h 00 m 06 s
 Mean elapsed time per time step in seconds =   1.986249983310700E-003
 Time steps remaining =         1600
 Estimated remaining time in seconds =    3.17799997329712     
 Estimated remaining time in hh:mm:ss =      0 h 00 m 03 s
 Estimated total run time in seconds =    9.53399991989136     
 Estimated total run time in hh:mm:ss =      0 h 00 m 09 s
 The run will finish approximately on: Sun Nov 08, 2020 17:30
 
 Creating color image of size          763  x          800  for time step 
        3200
 drawing scalar image of the forward wavefield displacement...
 Color image maximum amplitude =   1.581712858751416E-003
 Color image created
 
 
 ******************************************************************
Time step number    3300   t =  197.9400 s out of    4800
 ******************************************************************
 We have done    68.74348     % of the total
 Max norm of vector field in solid (elastic) =   1.3504036E-03
 Elapsed time in seconds =    6.55999994277954     
 Elapsed time in hh:mm:ss =      0 h 00 m 06 s
 Mean elapsed time per time step in seconds =   1.987878770539255E-003
 Time steps remaining =         1500
 Estimated remaining time in seconds =    2.98181815580888     
 Estimated remaining time in hh:mm:ss =      0 h 00 m 02 s
 Estimated total run time in seconds =    9.54181809858842     
 Estimated total run time in hh:mm:ss =      0 h 00 m 09 s
 The run will finish approximately on: Sun Nov 08, 2020 17:30
 
 Creating color image of size          763  x          800  for time step 
        3300
 drawing scalar image of the forward wavefield displacement...
 Color image maximum amplitude =   1.336899586021900E-003
 Color image created
 
 
 ******************************************************************
Time step number    3400   t =  203.9400 s out of    4800
 ******************************************************************
 We have done    70.82726     % of the total
 Max norm of vector field in solid (elastic) =   8.6705928E-04
 Elapsed time in seconds =    6.76399993896484     
 Elapsed time in hh:mm:ss =      0 h 00 m 06 s
 Mean elapsed time per time step in seconds =   1.989411746754366E-003
 Time steps remaining =         1400
 Estimated remaining time in seconds =    2.78517644545611     
 Estimated remaining time in hh:mm:ss =      0 h 00 m 02 s
 Estimated total run time in seconds =    9.54917638442096     
 Estimated total run time in hh:mm:ss =      0 h 00 m 09 s
 The run will finish approximately on: Sun Nov 08, 2020 17:30
 
 Creating color image of size          763  x          800  for time step 
        3400
 drawing scalar image of the forward wavefield displacement...
 Color image maximum amplitude =   8.703849161975086E-004
 Color image created
 
 
 ******************************************************************
Time step number    3500   t =  209.9400 s out of    4800
 ******************************************************************
 We have done    72.91103     % of the total
 Max norm of vector field in solid (elastic) =   7.4078341E-04
 Elapsed time in seconds =    6.96900010108948     
 Elapsed time in hh:mm:ss =      0 h 00 m 06 s
 Mean elapsed time per time step in seconds =   1.991142886025565E-003
 Time steps remaining =         1300
 Estimated remaining time in seconds =    2.58848575183323     
 Estimated remaining time in hh:mm:ss =      0 h 00 m 02 s
 Estimated total run time in seconds =    9.55748585292271     
 Estimated total run time in hh:mm:ss =      0 h 00 m 09 s
 The run will finish approximately on: Sun Nov 08, 2020 17:30
 
 Creating color image of size          763  x          800  for time step 
        3500
 drawing scalar image of the forward wavefield displacement...
 Color image maximum amplitude =   7.459619082510471E-004
 Color image created
 
 
 ******************************************************************
Time step number    3600   t =  215.9400 s out of    4800
 ******************************************************************
 We have done    74.99479     % of the total
 Max norm of vector field in solid (elastic) =   7.0295040E-04
 Elapsed time in seconds =    7.17300009727478     
 Elapsed time in hh:mm:ss =      0 h 00 m 07 s
 Mean elapsed time per time step in seconds =   1.992500027020772E-003
 Time steps remaining =         1200
 Estimated remaining time in seconds =    2.39100003242493     
 Estimated remaining time in hh:mm:ss =      0 h 00 m 02 s
 Estimated total run time in seconds =    9.56400012969971     
 Estimated total run time in hh:mm:ss =      0 h 00 m 09 s
 The run will finish approximately on: Sun Nov 08, 2020 17:30
 
 Creating color image of size          763  x          800  for time step 
        3600
 drawing scalar image of the forward wavefield displacement...
 Color image maximum amplitude =   7.026802632026374E-004
 Color image created
 
 
 ******************************************************************
Time step number    3700   t =  221.9400 s out of    4800
 ******************************************************************
 We have done    77.07856     % of the total
 Max norm of vector field in solid (elastic) =   6.4034824E-04
 Elapsed time in seconds =    7.37899994850159     
 Elapsed time in hh:mm:ss =      0 h 00 m 07 s
 Mean elapsed time per time step in seconds =   1.994324310405834E-003
 Time steps remaining =         1100
 Estimated remaining time in seconds =    2.19375674144642     
 Estimated remaining time in hh:mm:ss =      0 h 00 m 02 s
 Estimated total run time in seconds =    9.57275668994800     
 Estimated total run time in hh:mm:ss =      0 h 00 m 09 s
 The run will finish approximately on: Sun Nov 08, 2020 17:30
 
 Creating color image of size          763  x          800  for time step 
        3700
 drawing scalar image of the forward wavefield displacement...
 Color image maximum amplitude =   6.439391872845590E-004
 Color image created
 
 
 ******************************************************************
Time step number    3800   t =  227.9400 s out of    4800
 ******************************************************************
 We have done    79.16232     % of the total
 Max norm of vector field in solid (elastic) =   6.0393300E-04
 Elapsed time in seconds =    7.58599996566772     
 Elapsed time in hh:mm:ss =      0 h 00 m 07 s
 Mean elapsed time per time step in seconds =   1.996315780438875E-003
 Time steps remaining =         1000
 Estimated remaining time in seconds =    1.99631578043887     
 Estimated remaining time in hh:mm:ss =      0 h 00 m 01 s
 Estimated total run time in seconds =    9.58231574610660     
 Estimated total run time in hh:mm:ss =      0 h 00 m 09 s
 The run will finish approximately on: Sun Nov 08, 2020 17:30
 
 Creating color image of size          763  x          800  for time step 
        3800
 drawing scalar image of the forward wavefield displacement...
 Color image maximum amplitude =   6.033711833879352E-004
 Color image created
 
 
 ******************************************************************
Time step number    3900   t =  233.9400 s out of    4800
 ******************************************************************
 We have done    81.24609     % of the total
 Max norm of vector field in solid (elastic) =   5.5551698E-04
 Elapsed time in seconds =    7.79500007629395     
 Elapsed time in hh:mm:ss =      0 h 00 m 07 s
 Mean elapsed time per time step in seconds =   1.998717968280499E-003
 Time steps remaining =          900
 Estimated remaining time in seconds =    1.79884617145245     
 Estimated remaining time in hh:mm:ss =      0 h 00 m 01 s
 Estimated total run time in seconds =    9.59384624774640     
 Estimated total run time in hh:mm:ss =      0 h 00 m 09 s
 The run will finish approximately on: Sun Nov 08, 2020 17:30
 
 Creating color image of size          763  x          800  for time step 
        3900
 drawing scalar image of the forward wavefield displacement...
 Color image maximum amplitude =   5.548761691898108E-004
 Color image created
 
 
 ******************************************************************
Time step number    4000   t =  239.9400 s out of    4800
 ******************************************************************
 We have done    83.32986     % of the total
 Max norm of vector field in solid (elastic) =   5.1939749E-04
 Elapsed time in seconds =    8.00500011444092     
 Elapsed time in hh:mm:ss =      0 h 00 m 08 s
 Mean elapsed time per time step in seconds =   2.001250028610230E-003
 Time steps remaining =          800
 Estimated remaining time in seconds =    1.60100002288818     
 Estimated remaining time in hh:mm:ss =      0 h 00 m 01 s
 Estimated total run time in seconds =    9.60600013732910     
 Estimated total run time in hh:mm:ss =      0 h 00 m 09 s
 The run will finish approximately on: Sun Nov 08, 2020 17:30
 
 
 Total number of time steps done:         4000
 Writing the seismograms by main proc alone took   1.2493134E-04  seconds
 
 Creating color image of size          763  x          800  for time step 
        4000
 drawing scalar image of the forward wavefield displacement...
 Color image maximum amplitude =   5.198754952289164E-004
 Color image created
 
 
 ******************************************************************
Time step number    4100   t =  245.9400 s out of    4800
 ******************************************************************
 We have done    85.41363     % of the total
 Max norm of vector field in solid (elastic) =   4.8435022E-04
 Elapsed time in seconds =    8.21600008010864     
 Elapsed time in hh:mm:ss =      0 h 00 m 08 s
 Mean elapsed time per time step in seconds =   2.003902458563083E-003
 Time steps remaining =          700
 Estimated remaining time in seconds =    1.40273172099416     
 Estimated remaining time in hh:mm:ss =      0 h 00 m 01 s
 Estimated total run time in seconds =    9.61873180110280     
 Estimated total run time in hh:mm:ss =      0 h 00 m 09 s
 The run will finish approximately on: Sun Nov 08, 2020 17:30
 
 Creating color image of size          763  x          800  for time step 
        4100
 drawing scalar image of the forward wavefield displacement...
 Color image maximum amplitude =   4.835308936890215E-004
 Color image created
 
 
 ******************************************************************
Time step number    4200   t =  251.9400 s out of    4800
 ******************************************************************
 We have done    87.49740     % of the total
 Max norm of vector field in solid (elastic) =   4.5100544E-04
 Elapsed time in seconds =    8.42900013923645     
 Elapsed time in hh:mm:ss =      0 h 00 m 08 s
 Mean elapsed time per time step in seconds =   2.006904795056298E-003
 Time steps remaining =          600
 Estimated remaining time in seconds =    1.20414287703378     
 Estimated remaining time in hh:mm:ss =      0 h 00 m 01 s
 Estimated total run time in seconds =    9.63314301627023     
 Estimated total run time in hh:mm:ss =      0 h 00 m 09 s
 The run will finish approximately on: Sun Nov 08, 2020 17:30
 
 Creating color image of size          763  x          800  for time step 
        4200
 drawing scalar image of the forward wavefield displacement...
 Color image maximum amplitude =   4.513830936048180E-004
 Color image created
 
 
 ******************************************************************
Time step number    4300   t =  257.9400 s out of    4800
 ******************************************************************
 We have done    89.58116     % of the total
 Max norm of vector field in solid (elastic) =   4.2402797E-04
 Elapsed time in seconds =    8.64199995994568     
 Elapsed time in hh:mm:ss =      0 h 00 m 08 s
 Mean elapsed time per time step in seconds =   2.009767432545507E-003
 Time steps remaining =          500
 Estimated remaining time in seconds =    1.00488371627275     
 Estimated remaining time in hh:mm:ss =      0 h 00 m 01 s
 Estimated total run time in seconds =    9.64688367621843     
 Estimated total run time in hh:mm:ss =      0 h 00 m 09 s
 The run will finish approximately on: Sun Nov 08, 2020 17:30
 
 Creating color image of size          763  x          800  for time step 
        4300
 drawing scalar image of the forward wavefield displacement...
 Color image maximum amplitude =   4.243729053996503E-004
 Color image created
 
 
 ******************************************************************
Time step number    4400   t =  263.9400 s out of    4800
 ******************************************************************
 We have done    91.66493     % of the total
 Max norm of vector field in solid (elastic) =   3.9856727E-04
 Elapsed time in seconds =    8.85599994659424     
 Elapsed time in hh:mm:ss =      0 h 00 m 08 s
 Mean elapsed time per time step in seconds =   2.012727260589600E-003
 Time steps remaining =          400
 Estimated remaining time in seconds =   0.805090904235840     
 Estimated remaining time in hh:mm:ss =      0 h 00 m 00 s
 Estimated total run time in seconds =    9.66109085083008     
 Estimated total run time in hh:mm:ss =      0 h 00 m 09 s
 The run will finish approximately on: Sun Nov 08, 2020 17:30
 
 Creating color image of size          763  x          800  for time step 
        4400
 drawing scalar image of the forward wavefield displacement...
 Color image maximum amplitude =   3.992464335169643E-004
 Color image created
 
 
 ******************************************************************
Time step number    4500   t =  269.9400 s out of    4800
 ******************************************************************
 We have done    93.74870     % of the total
 Max norm of vector field in solid (elastic) =   3.7340788E-04
 Elapsed time in seconds =    9.07000017166138     
 Elapsed time in hh:mm:ss =      0 h 00 m 09 s
 Mean elapsed time per time step in seconds =   2.015555593702528E-003
 Time steps remaining =          300
 Estimated remaining time in seconds =   0.604666678110758     
 Estimated remaining time in hh:mm:ss =      0 h 00 m 00 s
 Estimated total run time in seconds =    9.67466684977214     
 Estimated total run time in hh:mm:ss =      0 h 00 m 09 s
 The run will finish approximately on: Sun Nov 08, 2020 17:30
 
 Creating color image of size          763  x          800  for time step 
        4500
 drawing scalar image of the forward wavefield displacement...
 Color image maximum amplitude =   3.746908332686871E-004
 Color image created
 
 
 ******************************************************************
Time step number    4600   t =  275.9400 s out of    4800
 ******************************************************************
 We have done    95.83247     % of the total
 Max norm of vector field in solid (elastic) =   3.5322580E-04
 Elapsed time in seconds =    9.28299999237061     
 Elapsed time in hh:mm:ss =      0 h 00 m 09 s
 Mean elapsed time per time step in seconds =   2.018043476602306E-003
 Time steps remaining =          200
 Estimated remaining time in seconds =   0.403608695320461     
 Estimated remaining time in hh:mm:ss =      0 h 00 m 00 s
 Estimated total run time in seconds =    9.68660868769107     
 Estimated total run time in hh:mm:ss =      0 h 00 m 09 s
 The run will finish approximately on: Sun Nov 08, 2020 17:30
 
 Creating color image of size          763  x          800  for time step 
        4600
 drawing scalar image of the forward wavefield displacement...
 Color image maximum amplitude =   3.513634146656841E-004
 Color image created
 
 
 ******************************************************************
Time step number    4700   t =  281.9400 s out of    4800
 ******************************************************************
 We have done    97.91623     % of the total
 Max norm of vector field in solid (elastic) =   3.1719048E-04
 Elapsed time in seconds =    9.49500012397766     
 Elapsed time in hh:mm:ss =      0 h 00 m 09 s
 Mean elapsed time per time step in seconds =   2.020212792335673E-003
 Time steps remaining =          100
 Estimated remaining time in seconds =   0.202021279233567     
 Estimated remaining time in hh:mm:ss =      0 h 00 m 00 s
 Estimated total run time in seconds =    9.69702140321123     
 Estimated total run time in hh:mm:ss =      0 h 00 m 09 s
 The run will finish approximately on: Sun Nov 08, 2020 17:30
 
 Creating color image of size          763  x          800  for time step 
        4700
 drawing scalar image of the forward wavefield displacement...
 Color image maximum amplitude =   3.166257811244577E-004
 Color image created
 
 
 ******************************************************************
Time step number    4800   t =  287.9400 s out of    4800
 ******************************************************************
 We have done    100.0000     % of the total
 Max norm of vector field in solid (elastic) =   2.4274517E-04
 Elapsed time in seconds =    9.70600008964539     
 Elapsed time in hh:mm:ss =      0 h 00 m 09 s
 Mean elapsed time per time step in seconds =   2.022083352009455E-003
 Time steps remaining =            0
 Estimated remaining time in seconds =   0.000000000000000E+000
 Estimated remaining time in hh:mm:ss =      0 h 00 m 00 s
 Estimated total run time in seconds =    9.70600008964539     
 Estimated total run time in hh:mm:ss =      0 h 00 m 09 s
 
 
 Total number of time steps done:         4800
 Writing the seismograms by main proc alone took   9.7274780E-05  seconds
 
 Creating color image of size          763  x          800  for time step 
        4800
 drawing scalar image of the forward wavefield displacement...
 Color image maximum amplitude =   2.431971806799993E-004
 Color image created
 
 
 Total duration of the time loop in seconds =    9.745448      s
 Total number of time steps =         4800
 Average duration of a time step of the time loop =   2.0303016E-03  s
 Total number of spectral elements in the mesh =         1600
     of which         1600  are regular elements
     and            0  are PML elements.
 Average duration of the calculation per spectral element =   1.2689386E-06  s
 


 -------------------------------------------------------------------------------
 -------------------------------------------------------------------------------
 Program SPECFEM2D: 
 -------------------------------------------------------------------------------
 -------------------------------------------------------------------------------
 checkers
 -------------------------------------------------------------------------------
 -------------------------------------------------------------------------------
 D a t e : 08 - 11 - 2020                                 T i m e  : 17:30:26
 -------------------------------------------------------------------------------
 -------------------------------------------------------------------------------
