 
 **********************************************
 **** Specfem 2-D Solver - serial version  ****
 **********************************************
 
 Running Git version of the code corresponding to 
 commit a213b4bf06b5a89d16eef4d10eba8346c3d9607f
 dating From Date:   Thu Oct 1 10:54:07 2020 -0400
 
 
 NDIM =            2
 
 NGLLX =            5
 NGLLZ =            5
 
 using single precision for the calculations
 
 smallest and largest possible floating-point numbers are:   1.1754944E-38
  3.4028235E+38
 
 Reading the parameter file...
 
 Title of the simulation: checkers
 
 
 Parameter file successfully read 
 
 Reading in SOURCE file...
 
 Source           1
   Position xs, zs =    204670.830000000        441693.440000000     
 
   Source type (1=force, 2=moment tensor):            1
   Force source:
   Angle of the source (deg) =   0.000000000000000E+000
 
   Time function type (1=Ricker, 2=First derivative, 3=Gaussian, 4=Dirac, 5=Heav
 iside, 6,7=ocean type, 8=Read from file, 9=burst, 10=Sinusoidal, 11=Ormsby):
           1
   Ricker wavelet (second-derivative):
   Frequency, delay =   8.400000000000001E-002  0.000000000000000E+000
   Multiplying factor  =    10000000000.0000     
 
 all sources are okay
 


 -------------------------------------------------------------------------------
 -------------------------------------------------------------------------------
 Program SPECFEM2D: 
 -------------------------------------------------------------------------------
 -------------------------------------------------------------------------------
 checkers
 -------------------------------------------------------------------------------
 -------------------------------------------------------------------------------
 D a t e : 08 - 11 - 2020                                 T i m e  : 17:32:10
 -------------------------------------------------------------------------------
 -------------------------------------------------------------------------------


 C o n t r o l
 =============

     Number of spectral element control nodes. . .(npgeo) =    6561
     Number of space dimensions. . . . . . . . . . (NDIM) =       2


 C o n t r o l
 =============

     Display frequency . . . .(NSTEP_BETWEEN_OUTPUT_INFO) =    100
     Color display . . . . . . . . . . . . . . . (colors) =      1
      == 0     black and white display              
      == 1     color display                        
     Numbered mesh . . . . . . . . . . . . . . .(numbers) =      0
      == 0     do not number the mesh               
      == 1     number the mesh                      


 C o n t r o l
 =============

     Seismograms recording type . . . . . . .(seismotype) = 1
     Angle for first line of receivers. . . . .(anglerec) =   0.00


 C o n t r o l
 =============

     Read external initial field. . . . . .(initialfield) =      F
     Add Bielak conditions (add_Bielak_conditions_bottom) =      F
     Add Bielak conditions .(add_Bielak_conditions_right) =      F
     Add Bielak conditions . .(add_Bielak_conditions_top) =      F
     Add Bielak conditions. .(add_Bielak_conditions_left) =      F
     Attenuation in solid . . .(ATTENUATION_VISCOELASTIC) =      F
     Attenuation in fluid . . (ATTENUATION_VISCOACOUSTIC) =      F
     Save grid in ASCII file or not . (output_grid_ASCII) =      F
     Save a file with total energy or not.(OUTPUT_ENERGY) =      F


 C o n t r o l
 =============

     Vector display type . . . . . . . . .(imagetype_postscript) =      1
     Percentage of cut for vector plots. . . . . . . .(cutsnaps) =   1.00
     Subsampling of velocity model display. (subsamp_postscript) =      1


 I t e r a t i o n s 
 ===================

     Number of time iterations . . . . .(NSTEP) =    4800
     Time step increment. . . . . . . . . .(DT) =   6.000000E-02
     Total simulation duration . . . . . (ttot) =   2.880000E+02
 
 
 reading mesh databases...
 

 -- Spectral Elements --


     Number of spectral elements . . . . . . . . .  (nspec) =   1600
     Number of control nodes per element . . . . . (ngnod) =      9
     Number of points in X-direction . . . . . . . (NGLLX) =      5
     Number of points in Y-direction . . . . . . . (NGLLZ) =      5
     Number of points per element. . . . . . (NGLLX*NGLLZ) =     25
     Number of points for display . . . . . . (pointsdisp) =      6
     Number of element material sets . . . . . . . (numat) =      1
     Number of acoustic forcing elements (nelem_acforcing) =      0
     Number of acoustic free surf (nelem_acoustic_surface) =      0


 M a t e r i a l   s e t s :   2 D  (p o r o) e l a s t i c i t y
 ======================================================

     Number of material sets . . . . . . (numat) =     1


     ----------------------------------------
     -- Elastic (solid) isotropic material --
     ----------------------------------------
     Material set number. . . . . . . . (jmat) =     1
     P-wave velocity. . . . . . . . . . . (cp) = 5.80000000E+03
     S-wave velocity. . . . . . . . . . . (cs) = 3.50000000E+03
     Mass density. . . . . . . . . . (density) = 2.60000000E+03
     Poisson's ratio. . . . . . . . .(poisson) = 2.13651239E-01
     First Lame parameter Lambda. . . (lambda) = 2.37640000E+10
     Second Lame parameter Mu. . . . . . .(mu) = 3.18500000E+10
     Bulk modulus Kappa . . . . . . . .(kappa) = 5.56140000E+10
     Young's modulus E. . . . . . . . .(young) = 8.02334925E+10
     QKappa_attenuation .  . . . . . .(QKappa) = 1.00000000E+01
     Qmu_attenuation . . . . . . . . . . (Qmu) = 1.00000000E+01
 
 
 reading absorbing boundary...
   number of absorbing elements =          160
 
   any absorbing boundary flag  =  T
   PML boundary flag            =  F
   Stacey boundary flag         =  T
 
 
 Absorbing boundaries:
   using Stacey absorbing boundary conditions
 
 Number of absorbing elements:          160
   nspec_left   =           40
   nspec_right  =           40
   nspec_bottom =           40
   nspec_top    =           40
 
 
 Setting up mesh
 
 Generating global mesh numbering (fast version)...
 
 Mesh numbering:
   Total number of elements:         1600
 
   Total number of acoustic elements           =            0
   Total number of elastic/visco/poro elements =         1600
 
 Exact total number of grid points in the mesh:        25921
 Mesh dimensions:
   Xmin,Xmax of the whole mesh =   0.000000000000000E+000
   480000.000000000     
   Zmin,Zmax of the whole mesh =   0.000000000000000E+000
   480000.000000000     
 
 
 setup material arrays
 Domains:
   total number of acoustic elements        =            0
   total number of elastic elements         =         1600
   total number of poroelastic elements     =            0
 
 Setting up MPI communication arrays
 
   maximum number of MPI interfaces (for a single slice) =            0
 
   This is a single process simulation, no need for MPI communication
 
   number of outer elements  =            0
   number of inner elements  =         1600
 
   percentage of outer elements   0.0000000E+00 %
   percentage of inner elements    100.0000     %
 
   number of global nodes in outer elements  =            0
   number of global nodes in inner elements  =        25921
 
   determining communication phases:
   elastic domains:
   total number of outer/inner elements =            0        1600
   total percentage of outer elements   0.0000000E+00 %
   total percentage of inner elements    100.0000     %
 
 All mesh setup done successfully
 
 sources:
   Total number of sources:            1
 
 
   Setting parameters for source           1
 
     Source Type. . . . . . . . . . . . . . = Collocated Force
     X-position (meters). . . . . . . . . . =    2.0467083000E+05
     Y-position (meters). . . . . . . . . . =    4.4169344000E+05
     Fundamental frequency (Hz) . . . . . . =    8.4000000000E-02
     Time delay (s) . . . . . . . . . . . . =    0.0000000000E+00
     Multiplying factor . . . . . . . . . . =    1.0000000000E+10
     Angle from vertical direction (deg). . =    0.0000000000E+00

 
   Source:            1
     Onset time. . . . . . =   -14.2857142857143     
     Fundamental period. . =    11.9047619047619     
     Fundamental frequency =   8.400000000000001E-002
     The onset time is ok
 
 Source:            1
 *******************************
  locating force source
 *******************************
 
 Force source:
             original x:    204670.8    
             original z:    441693.4    
 Closest estimate found:   0.0000000E+00  m away
  in rank            0
  in element         1458
  in elastic domain
  at xi,gamma coordinates =  -0.888195000000004       0.615573333333331     
 
 
 end of force source detection
 
 
 receivers:
 
 Total number of receivers =           22
 
 
 ********************
  locating receivers
 ********************
 
 reading receiver information from the ./DATA/STATIONS file
 
 
 Station #            1     AA      S0001                           
             original x:    300.0000    
             original z:    480000.0    
 Closest estimate found:   5.8207689E-11  m away
  in element         1561
  in rank            0
  at xi,gamma coordinates =  -0.950000000000000        1.00000000000000     
 Distance from source:    207929.9      m
 
 
 Station #            2     AA      S0002                           
             original x:    640.0000    
             original z:    480000.0    
 Closest estimate found:   1.1368684E-13  m away
  in element         1561
  in rank            0
  at xi,gamma coordinates =  -0.893333333333333        1.00000000000000     
 Distance from source:    207595.7      m
 
 
 Station #            3     AA      S0003                           
             original x:    980.0000    
             original z:    480000.0    
 Closest estimate found:   5.8208105E-11  m away
  in element         1561
  in rank            0
  at xi,gamma coordinates =  -0.836666666666667        1.00000000000000     
 Distance from source:    207261.5      m
 
 
 Station #            4     AA      S0004                           
             original x:    1320.000    
             original z:    480000.0    
 Closest estimate found:   5.8208105E-11  m away
  in element         1561
  in rank            0
  at xi,gamma coordinates =  -0.780000000000000        1.00000000000001     
 Distance from source:    206927.4      m
 
 
 Station #            5     AA      S0005                           
             original x:    1660.000    
             original z:    480000.0    
 Closest estimate found:   2.2737368E-13  m away
  in element         1561
  in rank            0
  at xi,gamma coordinates =  -0.723333333333333       0.999999999999999     
 Distance from source:    206593.3      m
 
 
 Station #            6     AA      S0006                           
             original x:    2000.000    
             original z:    480000.0    
 Closest estimate found:   1.1641554E-10  m away
  in element         1561
  in rank            0
  at xi,gamma coordinates =  -0.666666666666667       0.999999999999990     
 Distance from source:    206259.2      m
 
 
 Station #            7     AA      S0007                           
             original x:    2340.000    
             original z:    480000.0    
 Closest estimate found:   4.5474735E-13  m away
  in element         1561
  in rank            0
  at xi,gamma coordinates =  -0.610000000000000       0.999999999999991     
 Distance from source:    205925.1      m
 
 
 Station #            8     AA      S0008                           
             original x:    2680.000    
             original z:    480000.0    
 Closest estimate found:   0.0000000E+00  m away
  in element         1561
  in rank            0
  at xi,gamma coordinates =  -0.553333333333333       0.999999999999992     
 Distance from source:    205591.1      m
 
 
 Station #            9     AA      S0009                           
             original x:    3020.000    
             original z:    480000.0    
 Closest estimate found:   5.8209437E-11  m away
  in element         1561
  in rank            0
  at xi,gamma coordinates =  -0.496666666666667        1.00000000000000     
 Distance from source:    205257.0      m
 
 
 Station #           10     AA      S0010                           
             original x:    3360.000    
             original z:    480000.0    
 Closest estimate found:   0.0000000E+00  m away
  in element         1561
  in rank            0
  at xi,gamma coordinates =  -0.440000000000000        1.00000000000000     
 Distance from source:    204923.0      m
 
 
 Station #           11     AA      S0011                           
             original x:    3700.000    
             original z:    480000.0    
 Closest estimate found:   1.1641621E-10  m away
  in element         1561
  in rank            0
  at xi,gamma coordinates =  -0.383333333333333       0.999999999999994     
 Distance from source:    204589.0      m
 
 
 Station #           12     AA      S0012                           
             original x:    2500.000    
             original z:    2500.000    
 Closest estimate found:   4.5474735E-13  m away
  in element            1
  in rank            0
  at xi,gamma coordinates =  -0.583333333333333      -0.583333333333333     
 Distance from source:    483491.4      m
 
 
 Station #           13     AA      S0013                           
             original x:    2500.000    
             original z:    2250.000    
 Closest estimate found:   0.0000000E+00  m away
  in element            1
  in rank            0
  at xi,gamma coordinates =  -0.583333333333333      -0.625000000000000     
 Distance from source:    483718.5      m
 
 
 Station #           14     AA      S0014                           
             original x:    2500.000    
             original z:    2000.000    
 Closest estimate found:   5.0842300E-13  m away
  in element            1
  in rank            0
  at xi,gamma coordinates =  -0.583333333333333      -0.666666666666667     
 Distance from source:    483945.6      m
 
 
 Station #           15     AA      S0015                           
             original x:    2500.000    
             original z:    1750.000    
 Closest estimate found:   5.0842300E-13  m away
  in element            1
  in rank            0
  at xi,gamma coordinates =  -0.583333333333333      -0.708333333333333     
 Distance from source:    484172.8      m
 
 
 Station #           16     AA      S0016                           
             original x:    2500.000    
             original z:    1500.000    
 Closest estimate found:   2.2737368E-13  m away
  in element            1
  in rank            0
  at xi,gamma coordinates =  -0.583333333333333      -0.750000000000000     
 Distance from source:    484399.9      m
 
 
 Station #           17     AA      S0017                           
             original x:    2500.000    
             original z:    1250.000    
 Closest estimate found:   5.0842300E-13  m away
  in element            1
  in rank            0
  at xi,gamma coordinates =  -0.583333333333333      -0.791666666666667     
 Distance from source:    484627.2      m
 
 
 Station #           18     AA      S0018                           
             original x:    2500.000    
             original z:    1000.000    
 Closest estimate found:   4.5474735E-13  m away
  in element            1
  in rank            0
  at xi,gamma coordinates =  -0.583333333333333      -0.833333333333333     
 Distance from source:    484854.4      m
 
 
 Station #           19     AA      S0019                           
             original x:    2500.000    
             original z:    750.0000    
 Closest estimate found:   4.5474735E-13  m away
  in element            1
  in rank            0
  at xi,gamma coordinates =  -0.583333333333333      -0.875000000000000     
 Distance from source:    485081.6      m
 
 
 Station #           20     AA      S0020                           
             original x:    2500.000    
             original z:    500.0000    
 Closest estimate found:   6.0425384E-13  m away
  in element            1
  in rank            0
  at xi,gamma coordinates =  -0.583333333333333      -0.916666666666667     
 Distance from source:    485308.9      m
 
 
 Station #           21     AA      S0021                           
             original x:    2500.000    
             original z:    250.0000    
 Closest estimate found:   2.2737368E-13  m away
  in element            1
  in rank            0
  at xi,gamma coordinates =  -0.583333333333333      -0.958333333333333     
 Distance from source:    485536.2      m
 
 
 Station #           22     AA      S0022                           
             original x:    2500.000    
             original z:   0.0000000E+00
 Closest estimate found:   4.5474735E-13  m away
  in element            1
  in rank            0
  at xi,gamma coordinates =  -0.583333333333333       -1.00000000000000     
 Distance from source:    485763.5      m
 
 
 end of receiver detection
 
 found a total of           22  receivers, this is okay
 
 
 preparing timerun...
 
 
 Preparing array allocations
   arrays for elastic domains
   wavefield initialization
   done initialization
 
 Attenuation:
   viscoelastic  attenuation: F (shear & bulk attenuation in elastic domains)
   viscoacoustic attenuation: F (bulk attenuation in acoustic domains)
 
 Preparing mass matrices
   initializing mass matrices
   inverting mass matrices
 
 Preparing image coloring
 
 Checking mesh and stability
 
 ********
 Model: P (or PI) velocity min,max =    5800.00000000000     
   5800.00000000000     
 Model: S velocity min,max         =    3500.00000000000     
   3500.00000000000     
 Model: density min,max            =    2600.00000000000     
   2600.00000000000     
 ********
 
 
 *********************************************
 *** Verification of simulation parameters ***
 *********************************************
 
 *** Max grid size =    12000.0000000000     
 *** Min grid size =    12000.0000000000     
 *** Max/min ratio =    1.00000000000000     
 
 *** Minimum GLL point distance  =    2072.07797575214     
 *** Average GLL point distance  =    3000.00000000000     
 
 *** Minimum period resolved     =    4.28571428571429     
 *** Maximum frequency resolved  =   0.233333333333333      Hz
 
 *** Maximum suggested time step                 =   0.178627411702770     
 *** Maximum suggested (Ricker) source frequency =   9.333333333333334E-002
 
 *** for DT :   5.9999999E-02
 *** Max CFL stability condition of the time scheme based on P wave velocity (mu
 st be below about 0.50 or so) =   0.167947343822944     
 
 ----
 Number of points per wavelength:
 ----
   Source            1
   maximum dominant source frequency =   0.210000000000000      Hz
 
   Nb pts / lambdaP_fmax min =    9.206349    
   Nb pts / lambdaP_fmax max =    9.206349    
 
   Nb pts / lambdaS_fmax min =    5.555555    
   Nb pts / lambdaS_fmax max =    5.555555    
 
 -----------------------------------------
 
 histogram of min number of points per S wavelength in solid regions:
 
 there are         1600  elements out of         1600  in solid regions
   (i.e.,    100.0000     % of the total)
 
 (too small = poor resolution of calculations -
  too big = wasting memory and CPU time)
 (threshold value is around 4.5 points per S wavelength
  in elastic regions and 5.5 per P wavelength in fluid regions):
 
   5.500000      -    5.505556               0    0.0000000E+00  %
   5.505556      -    5.511111               0    0.0000000E+00  %
   5.511111      -    5.516667               0    0.0000000E+00  %
   5.516667      -    5.522222               0    0.0000000E+00  %
   5.522222      -    5.527778               0    0.0000000E+00  %
   5.527778      -    5.533333               0    0.0000000E+00  %
   5.533333      -    5.538889               0    0.0000000E+00  %
   5.538889      -    5.544445               0    0.0000000E+00  %
   5.544445      -    5.550000               0    0.0000000E+00  %
   5.550000      -    5.555555            1600     100.0000      %
   5.555555      -    5.561111               0    0.0000000E+00  %
   5.561111      -    5.566667               0    0.0000000E+00  %
   5.566667      -    5.572222               0    0.0000000E+00  %
   5.572222      -    5.577778               0    0.0000000E+00  %
   5.577778      -    5.583333               0    0.0000000E+00  %
   5.583333      -    5.588889               0    0.0000000E+00  %
   5.588889      -    5.594444               0    0.0000000E+00  %
   5.594444      -    5.600000               0    0.0000000E+00  %
   5.600000      -    5.605556               0    0.0000000E+00  %
   5.605556      -    5.611111               0    0.0000000E+00  %
 
 total percentage =    100.000000000000       %
 
 
 total number of elements in fluid and solid regions =         1600
 
 
 Preparing source time function
   time stepping scheme:   Newmark
   time stepping stages:            1
   time step size      :   5.9999999E-02
 
   number of time steps:         4800
   number of sources   :            1
 
   saving the source time function in a text file...
 
 
 Preparing image coloring
   allocating color image arrays
   locating all the pixels of color images
   total number of image pixels =       579882
   done locating all the pixels of color images
   coloring image background based on vp
 
 done, preparation successful
 

 =========================================
 =  T i m e  e v o l u t i o n  l o o p  =
 =========================================

 
 Starting time iteration loop in undoing attenuation...
 
 
 ******************************************************************
Time step number       5   t =    0.2400 s out of    4800
 ******************************************************************
 We have done   8.3350696E-02 % of the total
 Max norm of vector field in solid (elastic) =   2.1309940E-07
 Elapsed time in seconds =   7.000207901000977E-003
 Elapsed time in hh:mm:ss =      0 h 00 m 00 s
 Mean elapsed time per time step in seconds =   1.400041580200195E-003
 Time steps remaining =         4795
 Estimated remaining time in seconds =    6.71319937705994     
 Estimated remaining time in hh:mm:ss =      0 h 00 m 06 s
 Estimated total run time in seconds =    6.72019958496094     
 Estimated total run time in hh:mm:ss =      0 h 00 m 06 s
 The run will finish approximately on: Sun Nov 08, 2020 17:32
 
 Creating color image of size          763  x          800  for time step 
           5
 drawing scalar image of the forward wavefield displacement...
 Color image maximum amplitude =   3.588762922390742E-007
 Color image created
 
 
 ******************************************************************
Time step number     100   t =    5.9400 s out of    4800
 ******************************************************************
 We have done    2.062930     % of the total
 Max norm of vector field in solid (elastic) =   4.5694895E-03
 Elapsed time in seconds =   0.190000057220459     
 Elapsed time in hh:mm:ss =      0 h 00 m 00 s
 Mean elapsed time per time step in seconds =   1.900000572204590E-003
 Time steps remaining =         4700
 Estimated remaining time in seconds =    8.93000268936157     
 Estimated remaining time in hh:mm:ss =      0 h 00 m 08 s
 Estimated total run time in seconds =    9.12000274658203     
 Estimated total run time in hh:mm:ss =      0 h 00 m 09 s
 The run will finish approximately on: Sun Nov 08, 2020 17:32
 
 Creating color image of size          763  x          800  for time step 
         100
 drawing scalar image of the forward wavefield displacement...
 Color image maximum amplitude =   4.854104481637478E-003
 Color image created
 
 
 ******************************************************************
Time step number     200   t =   11.9400 s out of    4800
 ******************************************************************
 We have done    4.146697     % of the total
 Max norm of vector field in solid (elastic) =   4.2397510E-02
 Elapsed time in seconds =   0.382000207901001     
 Elapsed time in hh:mm:ss =      0 h 00 m 00 s
 Mean elapsed time per time step in seconds =   1.910001039505005E-003
 Time steps remaining =         4600
 Estimated remaining time in seconds =    8.78600478172302     
 Estimated remaining time in hh:mm:ss =      0 h 00 m 08 s
 Estimated total run time in seconds =    9.16800498962402     
 Estimated total run time in hh:mm:ss =      0 h 00 m 09 s
 The run will finish approximately on: Sun Nov 08, 2020 17:32
 
 Creating color image of size          763  x          800  for time step 
         200
 drawing scalar image of the forward wavefield displacement...
 Color image maximum amplitude =   4.130667820572853E-002
 Color image created
 
 
 ******************************************************************
Time step number     300   t =   17.9400 s out of    4800
 ******************************************************************
 We have done    6.230464     % of the total
 Max norm of vector field in solid (elastic) =   5.5504266E-02
 Elapsed time in seconds =   0.574000120162964     
 Elapsed time in hh:mm:ss =      0 h 00 m 00 s
 Mean elapsed time per time step in seconds =   1.913333733876546E-003
 Time steps remaining =         4500
 Estimated remaining time in seconds =    8.61000180244446     
 Estimated remaining time in hh:mm:ss =      0 h 00 m 08 s
 Estimated total run time in seconds =    9.18400192260742     
 Estimated total run time in hh:mm:ss =      0 h 00 m 09 s
 The run will finish approximately on: Sun Nov 08, 2020 17:32
 
 Creating color image of size          763  x          800  for time step 
         300
 drawing scalar image of the forward wavefield displacement...
 Color image maximum amplitude =   5.464686825871468E-002
 Color image created
 
 
 ******************************************************************
Time step number     400   t =   23.9400 s out of    4800
 ******************************************************************
 We have done    8.314232     % of the total
 Max norm of vector field in solid (elastic) =   2.9008131E-02
 Elapsed time in seconds =   0.771000146865845     
 Elapsed time in hh:mm:ss =      0 h 00 m 00 s
 Mean elapsed time per time step in seconds =   1.927500367164612E-003
 Time steps remaining =         4400
 Estimated remaining time in seconds =    8.48100161552429     
 Estimated remaining time in hh:mm:ss =      0 h 00 m 08 s
 Estimated total run time in seconds =    9.25200176239014     
 Estimated total run time in hh:mm:ss =      0 h 00 m 09 s
 The run will finish approximately on: Sun Nov 08, 2020 17:32
 
 Creating color image of size          763  x          800  for time step 
         400
 drawing scalar image of the forward wavefield displacement...
 Color image maximum amplitude =   2.893091179430485E-002
 Color image created
 
 
 ******************************************************************
Time step number     500   t =   29.9400 s out of    4800
 ******************************************************************
 We have done    10.39800     % of the total
 Max norm of vector field in solid (elastic) =   2.2978839E-02
 Elapsed time in seconds =   0.962000131607056     
 Elapsed time in hh:mm:ss =      0 h 00 m 00 s
 Mean elapsed time per time step in seconds =   1.924000263214111E-003
 Time steps remaining =         4300
 Estimated remaining time in seconds =    8.27320113182068     
 Estimated remaining time in hh:mm:ss =      0 h 00 m 08 s
 Estimated total run time in seconds =    9.23520126342773     
 Estimated total run time in hh:mm:ss =      0 h 00 m 09 s
 The run will finish approximately on: Sun Nov 08, 2020 17:32
 
 Creating color image of size          763  x          800  for time step 
         500
 drawing scalar image of the forward wavefield displacement...
 Color image maximum amplitude =   2.289278805255890E-002
 Color image created
 
 
 ******************************************************************
Time step number     600   t =   35.9400 s out of    4800
 ******************************************************************
 We have done    12.48177     % of the total
 Max norm of vector field in solid (elastic) =   2.0174418E-02
 Elapsed time in seconds =    1.15500020980835     
 Elapsed time in hh:mm:ss =      0 h 00 m 01 s
 Mean elapsed time per time step in seconds =   1.925000349680583E-003
 Time steps remaining =         4200
 Estimated remaining time in seconds =    8.08500146865845     
 Estimated remaining time in hh:mm:ss =      0 h 00 m 08 s
 Estimated total run time in seconds =    9.24000167846680     
 Estimated total run time in hh:mm:ss =      0 h 00 m 09 s
 The run will finish approximately on: Sun Nov 08, 2020 17:32
 
 Creating color image of size          763  x          800  for time step 
         600
 drawing scalar image of the forward wavefield displacement...
 Color image maximum amplitude =   2.024432271718979E-002
 Color image created
 
 
 ******************************************************************
Time step number     700   t =   41.9400 s out of    4800
 ******************************************************************
 We have done    14.56553     % of the total
 Max norm of vector field in solid (elastic) =   1.8520378E-02
 Elapsed time in seconds =    1.34900021553040     
 Elapsed time in hh:mm:ss =      0 h 00 m 01 s
 Mean elapsed time per time step in seconds =   1.927143165043422E-003
 Time steps remaining =         4100
 Estimated remaining time in seconds =    7.90128697667803     
 Estimated remaining time in hh:mm:ss =      0 h 00 m 07 s
 Estimated total run time in seconds =    9.25028719220843     
 Estimated total run time in hh:mm:ss =      0 h 00 m 09 s
 The run will finish approximately on: Sun Nov 08, 2020 17:32
 
 Creating color image of size          763  x          800  for time step 
         700
 drawing scalar image of the forward wavefield displacement...
 Color image maximum amplitude =   1.845955289900303E-002
 Color image created
 
 
 ******************************************************************
Time step number     800   t =   47.9400 s out of    4800
 ******************************************************************
 We have done    16.64930     % of the total
 Max norm of vector field in solid (elastic) =   1.7123461E-02
 Elapsed time in seconds =    1.54300022125244     
 Elapsed time in hh:mm:ss =      0 h 00 m 01 s
 Mean elapsed time per time step in seconds =   1.928750276565552E-003
 Time steps remaining =         4000
 Estimated remaining time in seconds =    7.71500110626221     
 Estimated remaining time in hh:mm:ss =      0 h 00 m 07 s
 Estimated total run time in seconds =    9.25800132751465     
 Estimated total run time in hh:mm:ss =      0 h 00 m 09 s
 The run will finish approximately on: Sun Nov 08, 2020 17:32
 
 Creating color image of size          763  x          800  for time step 
         800
 drawing scalar image of the forward wavefield displacement...
 Color image maximum amplitude =   1.715250872075558E-002
 Color image created
 
 
 ******************************************************************
Time step number     900   t =   53.9400 s out of    4800
 ******************************************************************
 We have done    18.73307     % of the total
 Max norm of vector field in solid (elastic) =   1.6043302E-02
 Elapsed time in seconds =    1.74000000953674     
 Elapsed time in hh:mm:ss =      0 h 00 m 01 s
 Mean elapsed time per time step in seconds =   1.933333343929715E-003
 Time steps remaining =         3900
 Estimated remaining time in seconds =    7.54000004132589     
 Estimated remaining time in hh:mm:ss =      0 h 00 m 07 s
 Estimated total run time in seconds =    9.28000005086263     
 Estimated total run time in hh:mm:ss =      0 h 00 m 09 s
 The run will finish approximately on: Sun Nov 08, 2020 17:32
 
 Creating color image of size          763  x          800  for time step 
         900
 drawing scalar image of the forward wavefield displacement...
 Color image maximum amplitude =   1.606383733451366E-002
 Color image created
 
 
 ******************************************************************
Time step number    1000   t =   59.9400 s out of    4800
 ******************************************************************
 We have done    20.81684     % of the total
 Max norm of vector field in solid (elastic) =   1.5228224E-02
 Elapsed time in seconds =    1.93700003623962     
 Elapsed time in hh:mm:ss =      0 h 00 m 01 s
 Mean elapsed time per time step in seconds =   1.937000036239624E-003
 Time steps remaining =         3800
 Estimated remaining time in seconds =    7.36060013771057     
 Estimated remaining time in hh:mm:ss =      0 h 00 m 07 s
 Estimated total run time in seconds =    9.29760017395020     
 Estimated total run time in hh:mm:ss =      0 h 00 m 09 s
 The run will finish approximately on: Sun Nov 08, 2020 17:32
 
 
 Total number of time steps done:         1000
 Writing the seismograms by main proc alone took   3.0803680E-04  seconds
 
 Creating color image of size          763  x          800  for time step 
        1000
 drawing scalar image of the forward wavefield displacement...
 Color image maximum amplitude =   1.520173251628876E-002
 Color image created
 
 
 ******************************************************************
Time step number    1100   t =   65.9400 s out of    4800
 ******************************************************************
 We have done    22.90060     % of the total
 Max norm of vector field in solid (elastic) =   1.4390630E-02
 Elapsed time in seconds =    2.13600015640259     
 Elapsed time in hh:mm:ss =      0 h 00 m 02 s
 Mean elapsed time per time step in seconds =   1.941818324002353E-003
 Time steps remaining =         3700
 Estimated remaining time in seconds =    7.18472779880871     
 Estimated remaining time in hh:mm:ss =      0 h 00 m 07 s
 Estimated total run time in seconds =    9.32072795521129     
 Estimated total run time in hh:mm:ss =      0 h 00 m 09 s
 The run will finish approximately on: Sun Nov 08, 2020 17:32
 
 Creating color image of size          763  x          800  for time step 
        1100
 drawing scalar image of the forward wavefield displacement...
 Color image maximum amplitude =   1.442741043865681E-002
 Color image created
 
 
 ******************************************************************
Time step number    1200   t =   71.9400 s out of    4800
 ******************************************************************
 We have done    24.98437     % of the total
 Max norm of vector field in solid (elastic) =   1.3839207E-02
 Elapsed time in seconds =    2.33500003814697     
 Elapsed time in hh:mm:ss =      0 h 00 m 02 s
 Mean elapsed time per time step in seconds =   1.945833365122477E-003
 Time steps remaining =         3600
 Estimated remaining time in seconds =    7.00500011444092     
 Estimated remaining time in hh:mm:ss =      0 h 00 m 07 s
 Estimated total run time in seconds =    9.34000015258789     
 Estimated total run time in hh:mm:ss =      0 h 00 m 09 s
 The run will finish approximately on: Sun Nov 08, 2020 17:32
 
 Creating color image of size          763  x          800  for time step 
        1200
 drawing scalar image of the forward wavefield displacement...
 Color image maximum amplitude =   1.383138261735439E-002
 Color image created
 
 
 ******************************************************************
Time step number    1300   t =   77.9400 s out of    4800
 ******************************************************************
 We have done    27.06814     % of the total
 Max norm of vector field in solid (elastic) =   1.3176749E-02
 Elapsed time in seconds =    2.53500008583069     
 Elapsed time in hh:mm:ss =      0 h 00 m 02 s
 Mean elapsed time per time step in seconds =   1.950000066023606E-003
 Time steps remaining =         3500
 Estimated remaining time in seconds =    6.82500023108262     
 Estimated remaining time in hh:mm:ss =      0 h 00 m 06 s
 Estimated total run time in seconds =    9.36000031691331     
 Estimated total run time in hh:mm:ss =      0 h 00 m 09 s
 The run will finish approximately on: Sun Nov 08, 2020 17:32
 
 Creating color image of size          763  x          800  for time step 
        1300
 drawing scalar image of the forward wavefield displacement...
 Color image maximum amplitude =   1.314216386526823E-002
 Color image created
 
 
 ******************************************************************
Time step number    1400   t =   83.9400 s out of    4800
 ******************************************************************
 We have done    29.15191     % of the total
 Max norm of vector field in solid (elastic) =   1.2772044E-02
 Elapsed time in seconds =    2.73500013351440     
 Elapsed time in hh:mm:ss =      0 h 00 m 02 s
 Mean elapsed time per time step in seconds =   1.953571523938860E-003
 Time steps remaining =         3400
 Estimated remaining time in seconds =    6.64214318139212     
 Estimated remaining time in hh:mm:ss =      0 h 00 m 06 s
 Estimated total run time in seconds =    9.37714331490653     
 Estimated total run time in hh:mm:ss =      0 h 00 m 09 s
 The run will finish approximately on: Sun Nov 08, 2020 17:32
 
 Creating color image of size          763  x          800  for time step 
        1400
 drawing scalar image of the forward wavefield displacement...
 Color image maximum amplitude =   1.278673205524683E-002
 Color image created
 
 
 ******************************************************************
Time step number    1500   t =   89.9400 s out of    4800
 ******************************************************************
 We have done    31.23567     % of the total
 Max norm of vector field in solid (elastic) =   1.2161678E-02
 Elapsed time in seconds =    2.93600010871887     
 Elapsed time in hh:mm:ss =      0 h 00 m 02 s
 Mean elapsed time per time step in seconds =   1.957333405812581E-003
 Time steps remaining =         3300
 Estimated remaining time in seconds =    6.45920023918152     
 Estimated remaining time in hh:mm:ss =      0 h 00 m 06 s
 Estimated total run time in seconds =    9.39520034790039     
 Estimated total run time in hh:mm:ss =      0 h 00 m 09 s
 The run will finish approximately on: Sun Nov 08, 2020 17:32
 
 Creating color image of size          763  x          800  for time step 
        1500
 drawing scalar image of the forward wavefield displacement...
 Color image maximum amplitude =   1.222028955817223E-002
 Color image created
 
 
 ******************************************************************
Time step number    1600   t =   95.9400 s out of    4800
 ******************************************************************
 We have done    33.31944     % of the total
 Max norm of vector field in solid (elastic) =   1.0659542E-02
 Elapsed time in seconds =    3.13800001144409     
 Elapsed time in hh:mm:ss =      0 h 00 m 03 s
 Mean elapsed time per time step in seconds =   1.961250007152558E-003
 Time steps remaining =         3200
 Estimated remaining time in seconds =    6.27600002288818     
 Estimated remaining time in hh:mm:ss =      0 h 00 m 06 s
 Estimated total run time in seconds =    9.41400003433228     
 Estimated total run time in hh:mm:ss =      0 h 00 m 09 s
 The run will finish approximately on: Sun Nov 08, 2020 17:32
 
 Creating color image of size          763  x          800  for time step 
        1600
 drawing scalar image of the forward wavefield displacement...
 Color image maximum amplitude =   1.058648526668549E-002
 Color image created
 
 
 ******************************************************************
Time step number    1700   t =  101.9400 s out of    4800
 ******************************************************************
 We have done    35.40321     % of the total
 Max norm of vector field in solid (elastic) =   9.8497095E-03
 Elapsed time in seconds =    3.33900022506714     
 Elapsed time in hh:mm:ss =      0 h 00 m 03 s
 Mean elapsed time per time step in seconds =   1.964117779451258E-003
 Time steps remaining =         3100
 Estimated remaining time in seconds =    6.08876511629890     
 Estimated remaining time in hh:mm:ss =      0 h 00 m 06 s
 Estimated total run time in seconds =    9.42776534136604     
 Estimated total run time in hh:mm:ss =      0 h 00 m 09 s
 The run will finish approximately on: Sun Nov 08, 2020 17:32
 
 Creating color image of size          763  x          800  for time step 
        1700
 drawing scalar image of the forward wavefield displacement...
 Color image maximum amplitude =   9.888366796076298E-003
 Color image created
 
 
 ******************************************************************
Time step number    1800   t =  107.9400 s out of    4800
 ******************************************************************
 We have done    37.48698     % of the total
 Max norm of vector field in solid (elastic) =   9.7537152E-03
 Elapsed time in seconds =    3.54100012779236     
 Elapsed time in hh:mm:ss =      0 h 00 m 03 s
 Mean elapsed time per time step in seconds =   1.967222293217977E-003
 Time steps remaining =         3000
 Estimated remaining time in seconds =    5.90166687965393     
 Estimated remaining time in hh:mm:ss =      0 h 00 m 05 s
 Estimated total run time in seconds =    9.44266700744629     
 Estimated total run time in hh:mm:ss =      0 h 00 m 09 s
 The run will finish approximately on: Sun Nov 08, 2020 17:32
 
 Creating color image of size          763  x          800  for time step 
        1800
 drawing scalar image of the forward wavefield displacement...
 Color image maximum amplitude =   9.767662733793259E-003
 Color image created
 
 
 ******************************************************************
Time step number    1900   t =  113.9400 s out of    4800
 ******************************************************************
 We have done    39.57074     % of the total
 Max norm of vector field in solid (elastic) =   9.5292069E-03
 Elapsed time in seconds =    3.74300003051758     
 Elapsed time in hh:mm:ss =      0 h 00 m 03 s
 Mean elapsed time per time step in seconds =   1.970000016061883E-003
 Time steps remaining =         2900
 Estimated remaining time in seconds =    5.71300004657946     
 Estimated remaining time in hh:mm:ss =      0 h 00 m 05 s
 Estimated total run time in seconds =    9.45600007709704     
 Estimated total run time in hh:mm:ss =      0 h 00 m 09 s
 The run will finish approximately on: Sun Nov 08, 2020 17:32
 
 Creating color image of size          763  x          800  for time step 
        1900
 drawing scalar image of the forward wavefield displacement...
 Color image maximum amplitude =   9.559647180140018E-003
 Color image created
 
 
 ******************************************************************
Time step number    2000   t =  119.9400 s out of    4800
 ******************************************************************
 We have done    41.65451     % of the total
 Max norm of vector field in solid (elastic) =   9.3790218E-03
 Elapsed time in seconds =    3.94500017166138     
 Elapsed time in hh:mm:ss =      0 h 00 m 03 s
 Mean elapsed time per time step in seconds =   1.972500085830688E-003
 Time steps remaining =         2800
 Estimated remaining time in seconds =    5.52300024032593     
 Estimated remaining time in hh:mm:ss =      0 h 00 m 05 s
 Estimated total run time in seconds =    9.46800041198730     
 Estimated total run time in hh:mm:ss =      0 h 00 m 09 s
 The run will finish approximately on: Sun Nov 08, 2020 17:32
 
 
 Total number of time steps done:         2000
 Writing the seismograms by main proc alone took   1.2302399E-04  seconds
 
 Creating color image of size          763  x          800  for time step 
        2000
 drawing scalar image of the forward wavefield displacement...
 Color image maximum amplitude =   9.356644004583359E-003
 Color image created
 
 
 ******************************************************************
Time step number    2100   t =  125.9400 s out of    4800
 ******************************************************************
 We have done    43.73828     % of the total
 Max norm of vector field in solid (elastic) =   9.0963636E-03
 Elapsed time in seconds =    4.14800000190735     
 Elapsed time in hh:mm:ss =      0 h 00 m 04 s
 Mean elapsed time per time step in seconds =   1.975238096146356E-003
 Time steps remaining =         2700
 Estimated remaining time in seconds =    5.33314285959516     
 Estimated remaining time in hh:mm:ss =      0 h 00 m 05 s
 Estimated total run time in seconds =    9.48114286150251     
 Estimated total run time in hh:mm:ss =      0 h 00 m 09 s
 The run will finish approximately on: Sun Nov 08, 2020 17:32
 
 Creating color image of size          763  x          800  for time step 
        2100
 drawing scalar image of the forward wavefield displacement...
 Color image maximum amplitude =   9.092814289033413E-003
 Color image created
 
 
 ******************************************************************
Time step number    2200   t =  131.9400 s out of    4800
 ******************************************************************
 We have done    45.82204     % of the total
 Max norm of vector field in solid (elastic) =   8.9062769E-03
 Elapsed time in seconds =    4.35100007057190     
 Elapsed time in hh:mm:ss =      0 h 00 m 04 s
 Mean elapsed time per time step in seconds =   1.977727304805409E-003
 Time steps remaining =         2600
 Estimated remaining time in seconds =    5.14209099249406     
 Estimated remaining time in hh:mm:ss =      0 h 00 m 05 s
 Estimated total run time in seconds =    9.49309106306596     
 Estimated total run time in hh:mm:ss =      0 h 00 m 09 s
 The run will finish approximately on: Sun Nov 08, 2020 17:32
 
 Creating color image of size          763  x          800  for time step 
        2200
 drawing scalar image of the forward wavefield displacement...
 Color image maximum amplitude =   8.951856754720211E-003
 Color image created
 
 
 ******************************************************************
Time step number    2300   t =  137.9400 s out of    4800
 ******************************************************************
 We have done    47.90582     % of the total
 Max norm of vector field in solid (elastic) =   8.8186562E-03
 Elapsed time in seconds =    4.55400013923645     
 Elapsed time in hh:mm:ss =      0 h 00 m 04 s
 Mean elapsed time per time step in seconds =   1.980000060537587E-003
 Time steps remaining =         2500
 Estimated remaining time in seconds =    4.95000015134397     
 Estimated remaining time in hh:mm:ss =      0 h 00 m 04 s
 Estimated total run time in seconds =    9.50400029058042     
 Estimated total run time in hh:mm:ss =      0 h 00 m 09 s
 The run will finish approximately on: Sun Nov 08, 2020 17:32
 
 Creating color image of size          763  x          800  for time step 
        2300
 drawing scalar image of the forward wavefield displacement...
 Color image maximum amplitude =   8.844541385769844E-003
 Color image created
 
 
 ******************************************************************
Time step number    2400   t =  143.9400 s out of    4800
 ******************************************************************
 We have done    49.98958     % of the total
 Max norm of vector field in solid (elastic) =   8.7096589E-03
 Elapsed time in seconds =    4.75600004196167     
 Elapsed time in hh:mm:ss =      0 h 00 m 04 s
 Mean elapsed time per time step in seconds =   1.981666684150696E-003
 Time steps remaining =         2400
 Estimated remaining time in seconds =    4.75600004196167     
 Estimated remaining time in hh:mm:ss =      0 h 00 m 04 s
 Estimated total run time in seconds =    9.51200008392334     
 Estimated total run time in hh:mm:ss =      0 h 00 m 09 s
 The run will finish approximately on: Sun Nov 08, 2020 17:32
 
 Creating color image of size          763  x          800  for time step 
        2400
 drawing scalar image of the forward wavefield displacement...
 Color image maximum amplitude =   8.648582734167576E-003
 Color image created
 
 
 ******************************************************************
Time step number    2500   t =  149.9400 s out of    4800
 ******************************************************************
 We have done    52.07335     % of the total
 Max norm of vector field in solid (elastic) =   8.8371038E-03
 Elapsed time in seconds =    4.95800018310547     
 Elapsed time in hh:mm:ss =      0 h 00 m 04 s
 Mean elapsed time per time step in seconds =   1.983200073242188E-003
 Time steps remaining =         2300
 Estimated remaining time in seconds =    4.56136016845703     
 Estimated remaining time in hh:mm:ss =      0 h 00 m 04 s
 Estimated total run time in seconds =    9.51936035156250     
 Estimated total run time in hh:mm:ss =      0 h 00 m 09 s
 The run will finish approximately on: Sun Nov 08, 2020 17:32
 
 Creating color image of size          763  x          800  for time step 
        2500
 drawing scalar image of the forward wavefield displacement...
 Color image maximum amplitude =   8.810015395283699E-003
 Color image created
 
 
 ******************************************************************
Time step number    2600   t =  155.9400 s out of    4800
 ******************************************************************
 We have done    54.15712     % of the total
 Max norm of vector field in solid (elastic) =   8.0776513E-03
 Elapsed time in seconds =    5.15900015830994     
 Elapsed time in hh:mm:ss =      0 h 00 m 05 s
 Mean elapsed time per time step in seconds =   1.984230830119206E-003
 Time steps remaining =         2200
 Estimated remaining time in seconds =    4.36530782626225     
 Estimated remaining time in hh:mm:ss =      0 h 00 m 04 s
 Estimated total run time in seconds =    9.52430798457219     
 Estimated total run time in hh:mm:ss =      0 h 00 m 09 s
 The run will finish approximately on: Sun Nov 08, 2020 17:32
 
 Creating color image of size          763  x          800  for time step 
        2600
 drawing scalar image of the forward wavefield displacement...
 Color image maximum amplitude =   8.056407794356346E-003
 Color image created
 
 
 ******************************************************************
Time step number    2700   t =  161.9400 s out of    4800
 ******************************************************************
 We have done    56.24088     % of the total
 Max norm of vector field in solid (elastic) =   7.3244357E-03
 Elapsed time in seconds =    5.35900020599365     
 Elapsed time in hh:mm:ss =      0 h 00 m 05 s
 Mean elapsed time per time step in seconds =   1.984814891108760E-003
 Time steps remaining =         2100
 Estimated remaining time in seconds =    4.16811127132840     
 Estimated remaining time in hh:mm:ss =      0 h 00 m 04 s
 Estimated total run time in seconds =    9.52711147732205     
 Estimated total run time in hh:mm:ss =      0 h 00 m 09 s
 The run will finish approximately on: Sun Nov 08, 2020 17:32
 
 Creating color image of size          763  x          800  for time step 
        2700
 drawing scalar image of the forward wavefield displacement...
 Color image maximum amplitude =   7.337126880884171E-003
 Color image created
 
 
 ******************************************************************
Time step number    2800   t =  167.9400 s out of    4800
 ******************************************************************
 We have done    58.32465     % of the total
 Max norm of vector field in solid (elastic) =   2.6973947E-03
 Elapsed time in seconds =    5.55800008773804     
 Elapsed time in hh:mm:ss =      0 h 00 m 05 s
 Mean elapsed time per time step in seconds =   1.985000031335013E-003
 Time steps remaining =         2000
 Estimated remaining time in seconds =    3.97000006267003     
 Estimated remaining time in hh:mm:ss =      0 h 00 m 03 s
 Estimated total run time in seconds =    9.52800015040806     
 Estimated total run time in hh:mm:ss =      0 h 00 m 09 s
 The run will finish approximately on: Sun Nov 08, 2020 17:32
 
 Creating color image of size          763  x          800  for time step 
        2800
 drawing scalar image of the forward wavefield displacement...
 Color image maximum amplitude =   2.666768385097384E-003
 Color image created
 
 
 ******************************************************************
Time step number    2900   t =  173.9400 s out of    4800
 ******************************************************************
 We have done    60.40842     % of the total
 Max norm of vector field in solid (elastic) =   1.8520334E-03
 Elapsed time in seconds =    5.75999999046326     
 Elapsed time in hh:mm:ss =      0 h 00 m 05 s
 Mean elapsed time per time step in seconds =   1.986206893263192E-003
 Time steps remaining =         1900
 Estimated remaining time in seconds =    3.77379309720006     
 Estimated remaining time in hh:mm:ss =      0 h 00 m 03 s
 Estimated total run time in seconds =    9.53379308766332     
 Estimated total run time in hh:mm:ss =      0 h 00 m 09 s
 The run will finish approximately on: Sun Nov 08, 2020 17:32
 
 Creating color image of size          763  x          800  for time step 
        2900
 drawing scalar image of the forward wavefield displacement...
 Color image maximum amplitude =   1.840421115048230E-003
 Color image created
 
 
 ******************************************************************
Time step number    3000   t =  179.9400 s out of    4800
 ******************************************************************
 We have done    62.49219     % of the total
 Max norm of vector field in solid (elastic) =   1.4582190E-03
 Elapsed time in seconds =    5.96400022506714     
 Elapsed time in hh:mm:ss =      0 h 00 m 05 s
 Mean elapsed time per time step in seconds =   1.988000075022380E-003
 Time steps remaining =         1800
 Estimated remaining time in seconds =    3.57840013504028     
 Estimated remaining time in hh:mm:ss =      0 h 00 m 03 s
 Estimated total run time in seconds =    9.54240036010742     
 Estimated total run time in hh:mm:ss =      0 h 00 m 09 s
 The run will finish approximately on: Sun Nov 08, 2020 17:32
 
 
 Total number of time steps done:         3000
 Writing the seismograms by main proc alone took   1.2111664E-04  seconds
 
 Creating color image of size          763  x          800  for time step 
        3000
 drawing scalar image of the forward wavefield displacement...
 Color image maximum amplitude =   1.459842547774315E-003
 Color image created
 
 
 ******************************************************************
Time step number    3100   t =  185.9400 s out of    4800
 ******************************************************************
 We have done    64.57595     % of the total
 Max norm of vector field in solid (elastic) =   1.3939694E-03
 Elapsed time in seconds =    6.17000007629395     
 Elapsed time in hh:mm:ss =      0 h 00 m 06 s
 Mean elapsed time per time step in seconds =   1.990322605256111E-003
 Time steps remaining =         1700
 Estimated remaining time in seconds =    3.38354842893539     
 Estimated remaining time in hh:mm:ss =      0 h 00 m 03 s
 Estimated total run time in seconds =    9.55354850522933     
 Estimated total run time in hh:mm:ss =      0 h 00 m 09 s
 The run will finish approximately on: Sun Nov 08, 2020 17:32
 
 Creating color image of size          763  x          800  for time step 
        3100
 drawing scalar image of the forward wavefield displacement...
 Color image maximum amplitude =   1.399757922627032E-003
 Color image created
 
 
 ******************************************************************
Time step number    3200   t =  191.9400 s out of    4800
 ******************************************************************
 We have done    66.65972     % of the total
 Max norm of vector field in solid (elastic) =   1.5784971E-03
 Elapsed time in seconds =    6.37600016593933     
 Elapsed time in hh:mm:ss =      0 h 00 m 06 s
 Mean elapsed time per time step in seconds =   1.992500051856041E-003
 Time steps remaining =         1600
 Estimated remaining time in seconds =    3.18800008296967     
 Estimated remaining time in hh:mm:ss =      0 h 00 m 03 s
 Estimated total run time in seconds =    9.56400024890900     
 Estimated total run time in hh:mm:ss =      0 h 00 m 09 s
 The run will finish approximately on: Sun Nov 08, 2020 17:32
 
 Creating color image of size          763  x          800  for time step 
        3200
 drawing scalar image of the forward wavefield displacement...
 Color image maximum amplitude =   1.572373555973172E-003
 Color image created
 
 
 ******************************************************************
Time step number    3300   t =  197.9400 s out of    4800
 ******************************************************************
 We have done    68.74348     % of the total
 Max norm of vector field in solid (elastic) =   1.8033845E-03
 Elapsed time in seconds =    6.58200001716614     
 Elapsed time in hh:mm:ss =      0 h 00 m 06 s
 Mean elapsed time per time step in seconds =   1.994545459747314E-003
 Time steps remaining =         1500
 Estimated remaining time in seconds =    2.99181818962097     
 Estimated remaining time in hh:mm:ss =      0 h 00 m 02 s
 Estimated total run time in seconds =    9.57381820678711     
 Estimated total run time in hh:mm:ss =      0 h 00 m 09 s
 The run will finish approximately on: Sun Nov 08, 2020 17:32
 
 Creating color image of size          763  x          800  for time step 
        3300
 drawing scalar image of the forward wavefield displacement...
 Color image maximum amplitude =   1.823900151066482E-003
 Color image created
 
 
 ******************************************************************
Time step number    3400   t =  203.9400 s out of    4800
 ******************************************************************
 We have done    70.82726     % of the total
 Max norm of vector field in solid (elastic) =   9.7868557E-04
 Elapsed time in seconds =    6.78600001335144     
 Elapsed time in hh:mm:ss =      0 h 00 m 06 s
 Mean elapsed time per time step in seconds =   1.995882356868071E-003
 Time steps remaining =         1400
 Estimated remaining time in seconds =    2.79423529961530     
 Estimated remaining time in hh:mm:ss =      0 h 00 m 02 s
 Estimated total run time in seconds =    9.58023531296674     
 Estimated total run time in hh:mm:ss =      0 h 00 m 09 s
 The run will finish approximately on: Sun Nov 08, 2020 17:32
 
 Creating color image of size          763  x          800  for time step 
        3400
 drawing scalar image of the forward wavefield displacement...
 Color image maximum amplitude =   9.861978469416499E-004
 Color image created
 
 
 ******************************************************************
Time step number    3500   t =  209.9400 s out of    4800
 ******************************************************************
 We have done    72.91103     % of the total
 Max norm of vector field in solid (elastic) =   9.0726354E-04
 Elapsed time in seconds =    6.99200010299683     
 Elapsed time in hh:mm:ss =      0 h 00 m 06 s
 Mean elapsed time per time step in seconds =   1.997714315141950E-003
 Time steps remaining =         1300
 Estimated remaining time in seconds =    2.59702860968454     
 Estimated remaining time in hh:mm:ss =      0 h 00 m 02 s
 Estimated total run time in seconds =    9.58902871268136     
 Estimated total run time in hh:mm:ss =      0 h 00 m 09 s
 The run will finish approximately on: Sun Nov 08, 2020 17:32
 
 Creating color image of size          763  x          800  for time step 
        3500
 drawing scalar image of the forward wavefield displacement...
 Color image maximum amplitude =   9.081665193662047E-004
 Color image created
 
 
 ******************************************************************
Time step number    3600   t =  215.9400 s out of    4800
 ******************************************************************
 We have done    74.99479     % of the total
 Max norm of vector field in solid (elastic) =   7.9848565E-04
 Elapsed time in seconds =    7.19700002670288     
 Elapsed time in hh:mm:ss =      0 h 00 m 07 s
 Mean elapsed time per time step in seconds =   1.999166674084134E-003
 Time steps remaining =         1200
 Estimated remaining time in seconds =    2.39900000890096     
 Estimated remaining time in hh:mm:ss =      0 h 00 m 02 s
 Estimated total run time in seconds =    9.59600003560384     
 Estimated total run time in hh:mm:ss =      0 h 00 m 09 s
 The run will finish approximately on: Sun Nov 08, 2020 17:32
 
 Creating color image of size          763  x          800  for time step 
        3600
 drawing scalar image of the forward wavefield displacement...
 Color image maximum amplitude =   7.971601444296539E-004
 Color image created
 
 
 ******************************************************************
Time step number    3700   t =  221.9400 s out of    4800
 ******************************************************************
 We have done    77.07856     % of the total
 Max norm of vector field in solid (elastic) =   7.3562394E-04
 Elapsed time in seconds =    7.40300011634827     
 Elapsed time in hh:mm:ss =      0 h 00 m 07 s
 Mean elapsed time per time step in seconds =   2.000810842256288E-003
 Time steps remaining =         1100
 Estimated remaining time in seconds =    2.20089192648192     
 Estimated remaining time in hh:mm:ss =      0 h 00 m 02 s
 Estimated total run time in seconds =    9.60389204283018     
 Estimated total run time in hh:mm:ss =      0 h 00 m 09 s
 The run will finish approximately on: Sun Nov 08, 2020 17:32
 
 Creating color image of size          763  x          800  for time step 
        3700
 drawing scalar image of the forward wavefield displacement...
 Color image maximum amplitude =   7.351799285970628E-004
 Color image created
 
 
 ******************************************************************
Time step number    3800   t =  227.9400 s out of    4800
 ******************************************************************
 We have done    79.16232     % of the total
 Max norm of vector field in solid (elastic) =   6.7441282E-04
 Elapsed time in seconds =    7.61000013351440     
 Elapsed time in hh:mm:ss =      0 h 00 m 07 s
 Mean elapsed time per time step in seconds =   2.002631614082738E-003
 Time steps remaining =         1000
 Estimated remaining time in seconds =    2.00263161408274     
 Estimated remaining time in hh:mm:ss =      0 h 00 m 02 s
 Estimated total run time in seconds =    9.61263174759714     
 Estimated total run time in hh:mm:ss =      0 h 00 m 09 s
 The run will finish approximately on: Sun Nov 08, 2020 17:32
 
 Creating color image of size          763  x          800  for time step 
        3800
 drawing scalar image of the forward wavefield displacement...
 Color image maximum amplitude =   6.768858293071389E-004
 Color image created
 
 
 ******************************************************************
Time step number    3900   t =  233.9400 s out of    4800
 ******************************************************************
 We have done    81.24609     % of the total
 Max norm of vector field in solid (elastic) =   6.3015590E-04
 Elapsed time in seconds =    7.82000017166138     
 Elapsed time in hh:mm:ss =      0 h 00 m 07 s
 Mean elapsed time per time step in seconds =   2.005128249143943E-003
 Time steps remaining =          900
 Estimated remaining time in seconds =    1.80461542422955     
 Estimated remaining time in hh:mm:ss =      0 h 00 m 01 s
 Estimated total run time in seconds =    9.62461559589093     
 Estimated total run time in hh:mm:ss =      0 h 00 m 09 s
 The run will finish approximately on: Sun Nov 08, 2020 17:32
 
 Creating color image of size          763  x          800  for time step 
        3900
 drawing scalar image of the forward wavefield displacement...
 Color image maximum amplitude =   6.304314592853189E-004
 Color image created
 
 
 ******************************************************************
Time step number    4000   t =  239.9400 s out of    4800
 ******************************************************************
 We have done    83.32986     % of the total
 Max norm of vector field in solid (elastic) =   5.8738916E-04
 Elapsed time in seconds =    8.03000020980835     
 Elapsed time in hh:mm:ss =      0 h 00 m 08 s
 Mean elapsed time per time step in seconds =   2.007500052452088E-003
 Time steps remaining =          800
 Estimated remaining time in seconds =    1.60600004196167     
 Estimated remaining time in hh:mm:ss =      0 h 00 m 01 s
 Estimated total run time in seconds =    9.63600025177002     
 Estimated total run time in hh:mm:ss =      0 h 00 m 09 s
 The run will finish approximately on: Sun Nov 08, 2020 17:32
 
 
 Total number of time steps done:         4000
 Writing the seismograms by main proc alone took   1.1157990E-04  seconds
 
 Creating color image of size          763  x          800  for time step 
        4000
 drawing scalar image of the forward wavefield displacement...
 Color image maximum amplitude =   5.872354377061129E-004
 Color image created
 
 
 ******************************************************************
Time step number    4100   t =  245.9400 s out of    4800
 ******************************************************************
 We have done    85.41363     % of the total
 Max norm of vector field in solid (elastic) =   5.4364844E-04
 Elapsed time in seconds =    8.24100017547607     
 Elapsed time in hh:mm:ss =      0 h 00 m 08 s
 Mean elapsed time per time step in seconds =   2.010000042799043E-003
 Time steps remaining =          700
 Estimated remaining time in seconds =    1.40700002995933     
 Estimated remaining time in hh:mm:ss =      0 h 00 m 01 s
 Estimated total run time in seconds =    9.64800020543540     
 Estimated total run time in hh:mm:ss =      0 h 00 m 09 s
 The run will finish approximately on: Sun Nov 08, 2020 17:32
 
 Creating color image of size          763  x          800  for time step 
        4100
 drawing scalar image of the forward wavefield displacement...
 Color image maximum amplitude =   5.406804266385734E-004
 Color image created
 
 
 ******************************************************************
Time step number    4200   t =  251.9400 s out of    4800
 ******************************************************************
 We have done    87.49740     % of the total
 Max norm of vector field in solid (elastic) =   5.0883502E-04
 Elapsed time in seconds =    8.45100021362305     
 Elapsed time in hh:mm:ss =      0 h 00 m 08 s
 Mean elapsed time per time step in seconds =   2.012142908005487E-003
 Time steps remaining =          600
 Estimated remaining time in seconds =    1.20728574480329     
 Estimated remaining time in hh:mm:ss =      0 h 00 m 01 s
 Estimated total run time in seconds =    9.65828595842634     
 Estimated total run time in hh:mm:ss =      0 h 00 m 09 s
 The run will finish approximately on: Sun Nov 08, 2020 17:32
 
 Creating color image of size          763  x          800  for time step 
        4200
 drawing scalar image of the forward wavefield displacement...
 Color image maximum amplitude =   5.096168606542051E-004
 Color image created
 
 
 ******************************************************************
Time step number    4300   t =  257.9400 s out of    4800
 ******************************************************************
 We have done    89.58116     % of the total
 Max norm of vector field in solid (elastic) =   4.7717697E-04
 Elapsed time in seconds =    8.66000008583069     
 Elapsed time in hh:mm:ss =      0 h 00 m 08 s
 Mean elapsed time per time step in seconds =   2.013953508332718E-003
 Time steps remaining =          500
 Estimated remaining time in seconds =    1.00697675416636     
 Estimated remaining time in hh:mm:ss =      0 h 00 m 01 s
 Estimated total run time in seconds =    9.66697683999705     
 Estimated total run time in hh:mm:ss =      0 h 00 m 09 s
 The run will finish approximately on: Sun Nov 08, 2020 17:32
 
 Creating color image of size          763  x          800  for time step 
        4300
 drawing scalar image of the forward wavefield displacement...
 Color image maximum amplitude =   4.766143392771482E-004
 Color image created
 
 
 ******************************************************************
Time step number    4400   t =  263.9400 s out of    4800
 ******************************************************************
 We have done    91.66493     % of the total
 Max norm of vector field in solid (elastic) =   3.8873253E-04
 Elapsed time in seconds =    8.87000012397766     
 Elapsed time in hh:mm:ss =      0 h 00 m 08 s
 Mean elapsed time per time step in seconds =   2.015909119085832E-003
 Time steps remaining =          400
 Estimated remaining time in seconds =   0.806363647634333     
 Estimated remaining time in hh:mm:ss =      0 h 00 m 00 s
 Estimated total run time in seconds =    9.67636377161199     
 Estimated total run time in hh:mm:ss =      0 h 00 m 09 s
 The run will finish approximately on: Sun Nov 08, 2020 17:32
 
 Creating color image of size          763  x          800  for time step 
        4400
 drawing scalar image of the forward wavefield displacement...
 Color image maximum amplitude =   3.831910726148635E-004
 Color image created
 
 
 ******************************************************************
Time step number    4500   t =  269.9400 s out of    4800
 ******************************************************************
 We have done    93.74870     % of the total
 Max norm of vector field in solid (elastic) =   2.7593999E-04
 Elapsed time in seconds =    9.08000016212463     
 Elapsed time in hh:mm:ss =      0 h 00 m 09 s
 Mean elapsed time per time step in seconds =   2.017777813805474E-003
 Time steps remaining =          300
 Estimated remaining time in seconds =   0.605333344141642     
 Estimated remaining time in hh:mm:ss =      0 h 00 m 00 s
 Estimated total run time in seconds =    9.68533350626628     
 Estimated total run time in hh:mm:ss =      0 h 00 m 09 s
 The run will finish approximately on: Sun Nov 08, 2020 17:32
 
 Creating color image of size          763  x          800  for time step 
        4500
 drawing scalar image of the forward wavefield displacement...
 Color image maximum amplitude =   2.742755750659853E-004
 Color image created
 
 
 ******************************************************************
Time step number    4600   t =  275.9400 s out of    4800
 ******************************************************************
 We have done    95.83247     % of the total
 Max norm of vector field in solid (elastic) =   2.6383364E-04
 Elapsed time in seconds =    9.29200005531311     
 Elapsed time in hh:mm:ss =      0 h 00 m 09 s
 Mean elapsed time per time step in seconds =   2.020000012024589E-003
 Time steps remaining =          200
 Estimated remaining time in seconds =   0.404000002404918     
 Estimated remaining time in hh:mm:ss =      0 h 00 m 00 s
 Estimated total run time in seconds =    9.69600005771803     
 Estimated total run time in hh:mm:ss =      0 h 00 m 09 s
 The run will finish approximately on: Sun Nov 08, 2020 17:32
 
 Creating color image of size          763  x          800  for time step 
        4600
 drawing scalar image of the forward wavefield displacement...
 Color image maximum amplitude =   2.649363304954022E-004
 Color image created
 
 
 ******************************************************************
Time step number    4700   t =  281.9400 s out of    4800
 ******************************************************************
 We have done    97.91623     % of the total
 Max norm of vector field in solid (elastic) =   2.5899758E-04
 Elapsed time in seconds =    9.50500011444092     
 Elapsed time in hh:mm:ss =      0 h 00 m 09 s
 Mean elapsed time per time step in seconds =   2.022340449881047E-003
 Time steps remaining =          100
 Estimated remaining time in seconds =   0.202234044988105     
 Estimated remaining time in hh:mm:ss =      0 h 00 m 00 s
 Estimated total run time in seconds =    9.70723415942902     
 Estimated total run time in hh:mm:ss =      0 h 00 m 09 s
 The run will finish approximately on: Sun Nov 08, 2020 17:32
 
 Creating color image of size          763  x          800  for time step 
        4700
 drawing scalar image of the forward wavefield displacement...
 Color image maximum amplitude =   2.591970260255039E-004
 Color image created
 
 
 ******************************************************************
Time step number    4800   t =  287.9400 s out of    4800
 ******************************************************************
 We have done    100.0000     % of the total
 Max norm of vector field in solid (elastic) =   2.5134982E-04
 Elapsed time in seconds =    9.71600008010864     
 Elapsed time in hh:mm:ss =      0 h 00 m 09 s
 Mean elapsed time per time step in seconds =   2.024166683355967E-003
 Time steps remaining =            0
 Estimated remaining time in seconds =   0.000000000000000E+000
 Estimated remaining time in hh:mm:ss =      0 h 00 m 00 s
 Estimated total run time in seconds =    9.71600008010864     
 Estimated total run time in hh:mm:ss =      0 h 00 m 09 s
 
 
 Total number of time steps done:         4800
 Writing the seismograms by main proc alone took   9.4413757E-05  seconds
 
 Creating color image of size          763  x          800  for time step 
        4800
 drawing scalar image of the forward wavefield displacement...
 Color image maximum amplitude =   2.509404148440808E-004
 Color image created
 
 
 Total duration of the time loop in seconds =    9.750466      s
 Total number of time steps =         4800
 Average duration of a time step of the time loop =   2.0313472E-03  s
 Total number of spectral elements in the mesh =         1600
     of which         1600  are regular elements
     and            0  are PML elements.
 Average duration of the calculation per spectral element =   1.2695920E-06  s
 


 -------------------------------------------------------------------------------
 -------------------------------------------------------------------------------
 Program SPECFEM2D: 
 -------------------------------------------------------------------------------
 -------------------------------------------------------------------------------
 checkers
 -------------------------------------------------------------------------------
 -------------------------------------------------------------------------------
 D a t e : 08 - 11 - 2020                                 T i m e  : 17:32:19
 -------------------------------------------------------------------------------
 -------------------------------------------------------------------------------
